MODEL 1
REMARK VINA RESULT:      -8.8      0.000      0.000
REMARK  Name = LIGAND
REMARK  7 active torsions:
REMARK  status: ('A' for Active; 'I' for Inactive)
REMARK    1  A    between atoms: C_1  and  C_26
REMARK    2  A    between atoms: C_6  and  C_11
REMARK    3  A    between atoms: C_11  and  N_14
REMARK    4  A    between atoms: C_24  and  C_35
REMARK    5  A    between atoms: C_40  and  C_42
REMARK    6  A    between atoms: C_42  and  C_47
REMARK    7  A    between atoms: C_47  and  C_50
REMARK                            x       y       z     vdW  Elec       q    Type
REMARK                         _______ _______ _______ _____ _____    ______ ____
ROOT
ATOM      1  C   UNL     1      42.456 110.674  82.720  0.00  0.00    +0.022 C 
ATOM      2  C   UNL     1      41.410 110.262  81.610  0.00  0.00    +0.027 C 
ATOM      3  C   UNL     1      40.013 110.043  82.221  0.00  0.00    +0.108 C 
ATOM      4  N   UNL     1      39.526 111.231  82.992  0.00  0.00    -0.297 N 
ATOM      5  C   UNL     1      38.405 111.967  82.571  0.00  0.00    +0.248 C 
ATOM      6  O   UNL     1      37.784 111.696  81.552  0.00  0.00    -0.270 OA
ATOM      7  C   UNL     1      40.447 111.514  84.124  0.00  0.00    +0.108 C 
ATOM      8  C   UNL     1      41.869 111.888  83.551  0.00  0.00    +0.027 C 
ENDROOT
BRANCH   1   9
ATOM      9  C   UNL     1      43.859 110.922  82.126  0.00  0.00    -0.044 A 
ATOM     10  C   UNL     1      45.023 110.669  82.966  0.00  0.00    +0.004 A 
ATOM     11  C   UNL     1      46.352 110.887  82.471  0.00  0.00    +0.000 A 
ATOM     12  C   UNL     1      46.569 111.359  81.144  0.00  0.00    +0.002 A 
ATOM     13  C   UNL     1      45.439 111.623  80.279  0.00  0.00    -0.065 A 
ATOM     14  C   UNL     1      44.087 111.404  80.778  0.00  0.00    +0.005 A 
BRANCH  13  15
ATOM     15  C   UNL     1      45.667 112.128  78.879  0.00  0.00    -0.051 C 
BRANCH  15  16
ATOM     16  N   UNL     1      44.435 112.167  78.032  0.00  0.00    +0.381 N 
ATOM     17  H   UNL     1      44.610 112.613  77.144  0.00  0.00    -0.090 HD
ATOM     18  H   UNL     1      43.702 112.700  78.481  0.00  0.00    -0.090 HD
ATOM     19  H   UNL     1      44.070 111.245  77.844  0.00  0.00    -0.090 HD
ENDBRANCH  15  16
ENDBRANCH  13  15
ENDBRANCH   1   9
BRANCH   5  20
ATOM     20  C   UNL     1      37.826 113.127  83.331  0.00  0.00    +0.055 A 
ATOM     21  C   UNL     1      37.455 112.993  84.699  0.00  0.00    +0.123 A 
ATOM     22  N   UNL     1      36.908 113.978  85.435  0.00  0.00    -0.262 NA
ATOM     23  C   UNL     1      36.680 115.171  84.858  0.00  0.00    +0.114 A 
ATOM     24  C   UNL     1      36.998 115.462  83.499  0.00  0.00    -0.028 A 
ATOM     25  C   UNL     1      37.594 114.399  82.707  0.00  0.00    +0.019 A 
BRANCH  24  26
ATOM     26  C   UNL     1      36.702 116.805  82.915  0.00  0.00    +0.041 C 
BRANCH  26  27
ATOM     27  C   UNL     1      35.210 117.111  82.847  0.00  0.00    +0.040 C 
BRANCH  27  28
ATOM     28  C   UNL     1      34.331 116.100  82.154  0.00  0.00    -0.047 A 
ATOM     29  C   UNL     1      33.356 115.333  82.926  0.00  0.00    +0.003 A 
ATOM     30  C   UNL     1      32.510 114.376  82.278  0.00  0.00    +0.000 A 
ATOM     31  C   UNL     1      32.604 114.144  80.848  0.00  0.00    +0.000 A 
ATOM     32  C   UNL     1      33.560 114.893  80.074  0.00  0.00    +0.000 A 
ATOM     33  C   UNL     1      34.423 115.873  80.738  0.00  0.00    +0.003 A 
ENDBRANCH  27  28
ENDBRANCH  26  27
ENDBRANCH  24  26
ENDBRANCH   5  20
TORSDOF 7
ENDMDL
MODEL 2
REMARK VINA RESULT:      -8.7      4.294      6.668
REMARK  Name = LIGAND
REMARK  7 active torsions:
REMARK  status: ('A' for Active; 'I' for Inactive)
REMARK    1  A    between atoms: C_1  and  C_26
REMARK    2  A    between atoms: C_6  and  C_11
REMARK    3  A    between atoms: C_11  and  N_14
REMARK    4  A    between atoms: C_24  and  C_35
REMARK    5  A    between atoms: C_40  and  C_42
REMARK    6  A    between atoms: C_42  and  C_47
REMARK    7  A    between atoms: C_47  and  C_50
REMARK                            x       y       z     vdW  Elec       q    Type
REMARK                         _______ _______ _______ _____ _____    ______ ____
ROOT
ATOM      1  C   UNL     1      42.610 110.310  83.144  0.00  0.00    +0.022 C 
ATOM      2  C   UNL     1      41.338 110.732  82.306  0.00  0.00    +0.027 C 
ATOM      3  C   UNL     1      40.040 110.378  83.056  0.00  0.00    +0.108 C 
ATOM      4  N   UNL     1      39.988 110.968  84.432  0.00  0.00    -0.297 N 
ATOM      5  C   UNL     1      39.035 111.942  84.773  0.00  0.00    +0.248 C 
ATOM      6  O   UNL     1      38.218 112.376  83.971  0.00  0.00    -0.270 OA
ATOM      7  C   UNL     1      41.110 110.443  85.253  0.00  0.00    +0.108 C 
ATOM      8  C   UNL     1      42.477 110.899  84.609  0.00  0.00    +0.027 C 
ENDROOT
BRANCH   1   9
ATOM      9  C   UNL     1      43.923 110.677  82.422  0.00  0.00    -0.044 A 
ATOM     10  C   UNL     1      45.183 110.474  83.126  0.00  0.00    +0.004 A 
ATOM     11  C   UNL     1      46.436 110.803  82.509  0.00  0.00    +0.000 A 
ATOM     12  C   UNL     1      46.481 111.339  81.189  0.00  0.00    +0.002 A 
ATOM     13  C   UNL     1      45.252 111.556  80.457  0.00  0.00    -0.065 A 
ATOM     14  C   UNL     1      43.977 111.224  81.080  0.00  0.00    +0.005 A 
BRANCH  13  15
ATOM     15  C   UNL     1      45.299 112.128  79.064  0.00  0.00    -0.051 C 
BRANCH  15  16
ATOM     16  N   UNL     1      44.956 111.150  77.987  0.00  0.00    +0.381 N 
ATOM     17  H   UNL     1      45.366 110.245  78.164  0.00  0.00    -0.090 HD
ATOM     18  H   UNL     1      45.314 111.456  77.091  0.00  0.00    -0.090 HD
ATOM     19  H   UNL     1      43.959 111.021  77.890  0.00  0.00    -0.090 HD
ENDBRANCH  15  16
ENDBRANCH  13  15
ENDBRANCH   1   9
BRANCH   5  20
ATOM     20  C   UNL     1      38.885 112.526  86.151  0.00  0.00    +0.055 A 
ATOM     21  C   UNL     1      37.970 111.967  87.087  0.00  0.00    +0.123 A 
ATOM     22  N   UNL     1      37.764 112.452  88.326  0.00  0.00    -0.262 NA
ATOM     23  C   UNL     1      38.450 113.539  88.721  0.00  0.00    +0.114 A 
ATOM     24  C   UNL     1      39.403 114.211  87.901  0.00  0.00    -0.028 A 
ATOM     25  C   UNL     1      39.629 113.684  86.565  0.00  0.00    +0.019 A 
BRANCH  24  26
ATOM     26  C   UNL     1      40.117 115.426  88.396  0.00  0.00    +0.041 C 
BRANCH  26  27
ATOM     27  C   UNL     1      41.580 115.163  88.734  0.00  0.00    +0.040 C 
BRANCH  27  28
ATOM     28  C   UNL     1      41.897 114.762  90.154  0.00  0.00    -0.047 A 
ATOM     29  C   UNL     1      41.884 115.767  91.214  0.00  0.00    +0.003 A 
ATOM     30  C   UNL     1      42.175 115.397  92.567  0.00  0.00    +0.000 A 
ATOM     31  C   UNL     1      42.493 114.023  92.913  0.00  0.00    +0.000 A 
ATOM     32  C   UNL     1      42.509 113.022  91.879  0.00  0.00    +0.000 A 
ATOM     33  C   UNL     1      42.209 113.401  90.496  0.00  0.00    +0.003 A 
ENDBRANCH  27  28
ENDBRANCH  26  27
ENDBRANCH  24  26
ENDBRANCH   5  20
TORSDOF 7
ENDMDL
MODEL 3
REMARK VINA RESULT:      -8.6      2.388      3.258
REMARK  Name = LIGAND
REMARK  7 active torsions:
REMARK  status: ('A' for Active; 'I' for Inactive)
REMARK    1  A    between atoms: C_1  and  C_26
REMARK    2  A    between atoms: C_6  and  C_11
REMARK    3  A    between atoms: C_11  and  N_14
REMARK    4  A    between atoms: C_24  and  C_35
REMARK    5  A    between atoms: C_40  and  C_42
REMARK    6  A    between atoms: C_42  and  C_47
REMARK    7  A    between atoms: C_47  and  C_50
REMARK                            x       y       z     vdW  Elec       q    Type
REMARK                         _______ _______ _______ _____ _____    ______ ____
ROOT
ATOM      1  C   UNL     1      42.331 111.070  82.951  0.00  0.00    +0.022 C 
ATOM      2  C   UNL     1      41.301 110.574  81.861  0.00  0.00    +0.027 C 
ATOM      3  C   UNL     1      39.909 110.346  82.478  0.00  0.00    +0.108 C 
ATOM      4  N   UNL     1      39.385 111.557  83.189  0.00  0.00    -0.297 N 
ATOM      5  C   UNL     1      38.246 112.237  82.728  0.00  0.00    +0.248 C 
ATOM      6  O   UNL     1      37.636 111.899  81.723  0.00  0.00    -0.270 OA
ATOM      7  C   UNL     1      40.293 111.921  84.307  0.00  0.00    +0.108 C 
ATOM      8  C   UNL     1      41.706 112.307  83.720  0.00  0.00    +0.027 C 
ENDROOT
BRANCH   1   9
ATOM      9  C   UNL     1      43.728 111.329  82.349  0.00  0.00    -0.044 A 
ATOM     10  C   UNL     1      44.880 111.323  83.242  0.00  0.00    +0.004 A 
ATOM     11  C   UNL     1      46.204 111.564  82.741  0.00  0.00    +0.000 A 
ATOM     12  C   UNL     1      46.426 111.815  81.356  0.00  0.00    +0.002 A 
ATOM     13  C   UNL     1      45.307 111.830  80.438  0.00  0.00    -0.065 A 
ATOM     14  C   UNL     1      43.962 111.587  80.942  0.00  0.00    +0.005 A 
BRANCH  13  15
ATOM     15  C   UNL     1      45.541 112.102  78.975  0.00  0.00    -0.051 C 
BRANCH  15  16
ATOM     16  N   UNL     1      44.933 111.090  78.057  0.00  0.00    +0.381 N 
ATOM     17  H   UNL     1      43.996 111.349  77.788  0.00  0.00    -0.090 HD
ATOM     18  H   UNL     1      44.863 110.187  78.508  0.00  0.00    -0.090 HD
ATOM     19  H   UNL     1      45.472 110.968  77.212  0.00  0.00    -0.090 HD
ENDBRANCH  15  16
ENDBRANCH  13  15
ENDBRANCH   1   9
BRANCH   5  20
ATOM     20  C   UNL     1      37.631 113.417  83.429  0.00  0.00    +0.055 A 
ATOM     21  C   UNL     1      37.864 114.744  82.969  0.00  0.00    +0.123 A 
ATOM     22  N   UNL     1      37.369 115.847  83.560  0.00  0.00    -0.262 NA
ATOM     23  C   UNL     1      36.612 115.711  84.663  0.00  0.00    +0.114 A 
ATOM     24  C   UNL     1      36.288 114.451  85.244  0.00  0.00    -0.028 A 
ATOM     25  C   UNL     1      36.817 113.259  84.602  0.00  0.00    +0.019 A 
BRANCH  24  26
ATOM     26  C   UNL     1      35.455 114.371  86.482  0.00  0.00    +0.041 C 
BRANCH  26  27
ATOM     27  C   UNL     1      35.189 115.733  87.112  0.00  0.00    +0.040 C 
BRANCH  27  28
ATOM     28  C   UNL     1      33.748 116.123  87.326  0.00  0.00    -0.047 A 
ATOM     29  C   UNL     1      33.201 116.178  88.680  0.00  0.00    +0.003 A 
ATOM     30  C   UNL     1      31.837 116.554  88.896  0.00  0.00    +0.000 A 
ATOM     31  C   UNL     1      30.968 116.885  87.781  0.00  0.00    +0.000 A 
ATOM     32  C   UNL     1      31.493 116.836  86.441  0.00  0.00    +0.000 A 
ATOM     33  C   UNL     1      32.889 116.453  86.221  0.00  0.00    +0.003 A 
ENDBRANCH  27  28
ENDBRANCH  26  27
ENDBRANCH  24  26
ENDBRANCH   5  20
TORSDOF 7
ENDMDL
MODEL 4
REMARK VINA RESULT:      -8.3      2.426      4.636
REMARK  Name = LIGAND
REMARK  7 active torsions:
REMARK  status: ('A' for Active; 'I' for Inactive)
REMARK    1  A    between atoms: C_1  and  C_26
REMARK    2  A    between atoms: C_6  and  C_11
REMARK    3  A    between atoms: C_11  and  N_14
REMARK    4  A    between atoms: C_24  and  C_35
REMARK    5  A    between atoms: C_40  and  C_42
REMARK    6  A    between atoms: C_42  and  C_47
REMARK    7  A    between atoms: C_47  and  C_50
REMARK                            x       y       z     vdW  Elec       q    Type
REMARK                         _______ _______ _______ _____ _____    ______ ____
ROOT
ATOM      1  C   UNL     1      42.287 111.017  82.919  0.00  0.00    +0.022 C 
ATOM      2  C   UNL     1      41.225 110.535  81.853  0.00  0.00    +0.027 C 
ATOM      3  C   UNL     1      39.828 110.400  82.486  0.00  0.00    +0.108 C 
ATOM      4  N   UNL     1      39.371 111.660  83.155  0.00  0.00    -0.297 N 
ATOM      5  C   UNL     1      38.264 112.381  82.677  0.00  0.00    +0.248 C 
ATOM      6  O   UNL     1      37.630 112.037  81.688  0.00  0.00    -0.270 OA
ATOM      7  C   UNL     1      40.304 112.018  84.255  0.00  0.00    +0.108 C 
ATOM      8  C   UNL     1      41.730 112.311  83.646  0.00  0.00    +0.027 C 
ENDROOT
BRANCH   1   9
ATOM      9  C   UNL     1      43.691 111.183  82.300  0.00  0.00    -0.044 A 
ATOM     10  C   UNL     1      44.854 110.968  83.151  0.00  0.00    +0.004 A 
ATOM     11  C   UNL     1      46.185 111.114  82.634  0.00  0.00    +0.000 A 
ATOM     12  C   UNL     1      46.404 111.475  81.273  0.00  0.00    +0.002 A 
ATOM     13  C   UNL     1      45.274 111.697  80.396  0.00  0.00    -0.065 A 
ATOM     14  C   UNL     1      43.921 111.551  80.917  0.00  0.00    +0.005 A 
BRANCH  13  15
ATOM     15  C   UNL     1      45.504 112.085  78.958  0.00  0.00    -0.051 C 
BRANCH  15  16
ATOM     16  N   UNL     1      44.913 111.138  77.965  0.00  0.00    +0.381 N 
ATOM     17  H   UNL     1      44.806 111.570  77.059  0.00  0.00    -0.090 HD
ATOM     18  H   UNL     1      43.989 110.841  78.251  0.00  0.00    -0.090 HD
ATOM     19  H   UNL     1      45.476 110.309  77.843  0.00  0.00    -0.090 HD
ENDBRANCH  15  16
ENDBRANCH  13  15
ENDBRANCH   1   9
BRANCH   5  20
ATOM     20  C   UNL     1      37.714 113.614  83.338  0.00  0.00    +0.055 A 
ATOM     21  C   UNL     1      37.708 114.866  82.661  0.00  0.00    +0.123 A 
ATOM     22  N   UNL     1      37.258 116.015  83.198  0.00  0.00    -0.262 NA
ATOM     23  C   UNL     1      36.787 116.004  84.458  0.00  0.00    +0.114 A 
ATOM     24  C   UNL     1      36.726 114.830  85.265  0.00  0.00    -0.028 A 
ATOM     25  C   UNL     1      37.208 113.589  84.682  0.00  0.00    +0.019 A 
BRANCH  24  26
ATOM     26  C   UNL     1      36.208 114.891  86.665  0.00  0.00    +0.041 C 
BRANCH  26  27
ATOM     27  C   UNL     1      36.990 114.009  87.631  0.00  0.00    +0.040 C 
BRANCH  27  28
ATOM     28  C   UNL     1      38.273 114.571  88.190  0.00  0.00    -0.047 A 
ATOM     29  C   UNL     1      38.254 115.322  89.444  0.00  0.00    +0.003 A 
ATOM     30  C   UNL     1      39.466 115.853  89.989  0.00  0.00    +0.000 A 
ATOM     31  C   UNL     1      40.736 115.662  89.312  0.00  0.00    +0.000 A 
ATOM     32  C   UNL     1      40.771 114.923  88.077  0.00  0.00    +0.000 A 
ATOM     33  C   UNL     1      39.530 114.379  87.520  0.00  0.00    +0.003 A 
ENDBRANCH  27  28
ENDBRANCH  26  27
ENDBRANCH  24  26
ENDBRANCH   5  20
TORSDOF 7
ENDMDL
MODEL 5
REMARK VINA RESULT:      -8.0      3.443      4.541
REMARK  Name = LIGAND
REMARK  7 active torsions:
REMARK  status: ('A' for Active; 'I' for Inactive)
REMARK    1  A    between atoms: C_1  and  C_26
REMARK    2  A    between atoms: C_6  and  C_11
REMARK    3  A    between atoms: C_11  and  N_14
REMARK    4  A    between atoms: C_24  and  C_35
REMARK    5  A    between atoms: C_40  and  C_42
REMARK    6  A    between atoms: C_42  and  C_47
REMARK    7  A    between atoms: C_47  and  C_50
REMARK                            x       y       z     vdW  Elec       q    Type
REMARK                         _______ _______ _______ _____ _____    ______ ____
ROOT
ATOM      1  C   UNL     1      43.693 111.791  85.624  0.00  0.00    +0.022 C 
ATOM      2  C   UNL     1      43.199 110.641  86.590  0.00  0.00    +0.027 C 
ATOM      3  C   UNL     1      42.995 111.171  88.021  0.00  0.00    +0.108 C 
ATOM      4  N   UNL     1      42.066 112.345  88.077  0.00  0.00    -0.297 N 
ATOM      5  C   UNL     1      40.826 112.264  88.732  0.00  0.00    +0.248 C 
ATOM      6  O   UNL     1      40.429 111.238  89.269  0.00  0.00    -0.270 OA
ATOM      7  C   UNL     1      42.621 113.471  87.282  0.00  0.00    +0.108 C 
ATOM      8  C   UNL     1      42.719 113.033  85.768  0.00  0.00    +0.027 C 
ENDROOT
BRANCH   1   9
ATOM      9  C   UNL     1      43.880 111.287  84.177  0.00  0.00    -0.044 A 
ATOM     10  C   UNL     1      42.806 110.514  83.567  0.00  0.00    +0.004 A 
ATOM     11  C   UNL     1      42.926 110.014  82.227  0.00  0.00    +0.000 A 
ATOM     12  C   UNL     1      44.100 110.260  81.458  0.00  0.00    +0.002 A 
ATOM     13  C   UNL     1      45.189 111.023  82.030  0.00  0.00    -0.065 A 
ATOM     14  C   UNL     1      45.072 111.532  83.390  0.00  0.00    +0.005 A 
BRANCH  13  15
ATOM     15  C   UNL     1      46.434 111.278  81.220  0.00  0.00    -0.051 C 
BRANCH  15  16
ATOM     16  N   UNL     1      46.376 112.510  80.376  0.00  0.00    +0.381 N 
ATOM     17  H   UNL     1      45.445 112.898  80.350  0.00  0.00    -0.090 HD
ATOM     18  H   UNL     1      46.627 112.307  79.418  0.00  0.00    -0.090 HD
ATOM     19  H   UNL     1      46.998 113.232  80.709  0.00  0.00    -0.090 HD
ENDBRANCH  15  16
ENDBRANCH  13  15
ENDBRANCH   1   9
BRANCH   5  20
ATOM     20  C   UNL     1      39.877 113.420  88.882  0.00  0.00    +0.055 A 
ATOM     21  C   UNL     1      39.969 114.303  89.994  0.00  0.00    +0.123 A 
ATOM     22  N   UNL     1      39.140 115.342  90.207  0.00  0.00    -0.262 NA
ATOM     23  C   UNL     1      38.147 115.572  89.330  0.00  0.00    +0.114 A 
ATOM     24  C   UNL     1      37.925 114.779  88.166  0.00  0.00    -0.028 A 
ATOM     25  C   UNL     1      38.824 113.661  87.934  0.00  0.00    +0.019 A 
BRANCH  24  26
ATOM     26  C   UNL     1      36.790 115.079  87.241  0.00  0.00    +0.041 C 
BRANCH  26  27
ATOM     27  C   UNL     1      37.034 114.590  85.819  0.00  0.00    +0.040 C 
BRANCH  27  28
ATOM     28  C   UNL     1      36.336 115.333  84.707  0.00  0.00    -0.047 A 
ATOM     29  C   UNL     1      37.118 115.910  83.615  0.00  0.00    +0.003 A 
ATOM     30  C   UNL     1      36.467 116.611  82.550  0.00  0.00    +0.000 A 
ATOM     31  C   UNL     1      35.023 116.766  82.531  0.00  0.00    +0.000 A 
ATOM     32  C   UNL     1      34.240 116.202  83.599  0.00  0.00    +0.000 A 
ATOM     33  C   UNL     1      34.907 115.484  84.688  0.00  0.00    +0.003 A 
ENDBRANCH  27  28
ENDBRANCH  26  27
ENDBRANCH  24  26
ENDBRANCH   5  20
TORSDOF 7
ENDMDL
MODEL 6
REMARK VINA RESULT:      -7.9      4.936      7.535
REMARK  Name = LIGAND
REMARK  7 active torsions:
REMARK  status: ('A' for Active; 'I' for Inactive)
REMARK    1  A    between atoms: C_1  and  C_26
REMARK    2  A    between atoms: C_6  and  C_11
REMARK    3  A    between atoms: C_11  and  N_14
REMARK    4  A    between atoms: C_24  and  C_35
REMARK    5  A    between atoms: C_40  and  C_42
REMARK    6  A    between atoms: C_42  and  C_47
REMARK    7  A    between atoms: C_47  and  C_50
REMARK                            x       y       z     vdW  Elec       q    Type
REMARK                         _______ _______ _______ _____ _____    ______ ____
ROOT
ATOM      1  C   UNL     1      42.798 111.189  83.942  0.00  0.00    +0.022 C 
ATOM      2  C   UNL     1      41.510 111.914  83.386  0.00  0.00    +0.027 C 
ATOM      3  C   UNL     1      40.361 111.865  84.410  0.00  0.00    +0.108 C 
ATOM      4  N   UNL     1      40.751 112.426  85.744  0.00  0.00    -0.297 N 
ATOM      5  C   UNL     1      40.151 113.593  86.248  0.00  0.00    +0.248 C 
ATOM      6  O   UNL     1      39.305 114.221  85.627  0.00  0.00    -0.270 OA
ATOM      7  C   UNL     1      41.869 111.637  86.320  0.00  0.00    +0.108 C 
ATOM      8  C   UNL     1      43.130 111.767  85.380  0.00  0.00    +0.027 C 
ENDROOT
BRANCH   1   9
ATOM      9  C   UNL     1      43.971 111.247  82.941  0.00  0.00    -0.044 A 
ATOM     10  C   UNL     1      45.331 111.218  83.463  0.00  0.00    +0.004 A 
ATOM     11  C   UNL     1      46.462 111.275  82.581  0.00  0.00    +0.000 A 
ATOM     12  C   UNL     1      46.284 111.364  81.170  0.00  0.00    +0.002 A 
ATOM     13  C   UNL     1      44.948 111.396  80.613  0.00  0.00    -0.065 A 
ATOM     14  C   UNL     1      43.797 111.339  81.505  0.00  0.00    +0.005 A 
BRANCH  13  15
ATOM     15  C   UNL     1      44.759 111.496  79.122  0.00  0.00    -0.051 C 
BRANCH  15  16
ATOM     16  N   UNL     1      45.951 112.017  78.385  0.00  0.00    +0.381 N 
ATOM     17  H   UNL     1      46.716 111.360  78.407  0.00  0.00    -0.090 HD
ATOM     18  H   UNL     1      46.294 112.870  78.805  0.00  0.00    -0.090 HD
ATOM     19  H   UNL     1      45.746 112.214  77.416  0.00  0.00    -0.090 HD
ENDBRANCH  15  16
ENDBRANCH  13  15
ENDBRANCH   1   9
BRANCH   5  20
ATOM     20  C   UNL     1      40.448 114.172  87.603  0.00  0.00    +0.055 A 
ATOM     21  C   UNL     1      41.530 115.078  87.791  0.00  0.00    +0.123 A 
ATOM     22  N   UNL     1      41.871 115.615  88.977  0.00  0.00    -0.262 NA
ATOM     23  C   UNL     1      41.162 115.280  90.070  0.00  0.00    +0.114 A 
ATOM     24  C   UNL     1      40.050 114.388  90.045  0.00  0.00    -0.028 A 
ATOM     25  C   UNL     1      39.680 113.813  88.763  0.00  0.00    +0.019 A 
BRANCH  24  26
ATOM     26  C   UNL     1      39.317 114.045  91.301  0.00  0.00    +0.041 C 
BRANCH  26  27
ATOM     27  C   UNL     1      39.221 112.544  91.545  0.00  0.00    +0.040 C 
BRANCH  27  28
ATOM     28  C   UNL     1      40.516 111.782  91.670  0.00  0.00    -0.047 A 
ATOM     29  C   UNL     1      40.744 110.593  90.851  0.00  0.00    +0.003 A 
ATOM     30  C   UNL     1      41.973 109.866  90.955  0.00  0.00    +0.000 A 
ATOM     31  C   UNL     1      43.015 110.288  91.873  0.00  0.00    +0.000 A 
ATOM     32  C   UNL     1      42.805 111.458  92.686  0.00  0.00    +0.000 A 
ATOM     33  C   UNL     1      41.548 112.202  92.578  0.00  0.00    +0.003 A 
ENDBRANCH  27  28
ENDBRANCH  26  27
ENDBRANCH  24  26
ENDBRANCH   5  20
TORSDOF 7
ENDMDL
