MODEL 1
REMARK VINA RESULT:      -8.4      0.000      0.000
REMARK  Name = LIGAND
REMARK  7 active torsions:
REMARK  status: ('A' for Active; 'I' for Inactive)
REMARK    1  A    between atoms: C_1  and  C_26
REMARK    2  A    between atoms: C_6  and  C_11
REMARK    3  A    between atoms: C_11  and  N_14
REMARK    4  A    between atoms: C_24  and  C_35
REMARK    5  A    between atoms: C_40  and  C_42
REMARK    6  A    between atoms: C_42  and  C_47
REMARK    7  A    between atoms: C_47  and  C_50
REMARK                            x       y       z     vdW  Elec       q    Type
REMARK                         _______ _______ _______ _____ _____    ______ ____
ROOT
ATOM      1  C   UNL     1      42.391 110.314  83.330  0.00  0.00    +0.022 C 
ATOM      2  C   UNL     1      41.080 110.563  82.485  0.00  0.00    +0.027 C 
ATOM      3  C   UNL     1      39.822 110.205  83.297  0.00  0.00    +0.108 C 
ATOM      4  N   UNL     1      39.753 110.929  84.607  0.00  0.00    -0.297 N 
ATOM      5  C   UNL     1      38.743 111.869  84.870  0.00  0.00    +0.248 C 
ATOM      6  O   UNL     1      37.885 112.163  84.048  0.00  0.00    -0.270 OA
ATOM      7  C   UNL     1      40.922 110.566  85.450  0.00  0.00    +0.108 C 
ATOM      8  C   UNL     1      42.243 111.041  84.731  0.00  0.00    +0.027 C 
ENDROOT
BRANCH   1   9
ATOM      9  C   UNL     1      43.665 110.690  82.543  0.00  0.00    -0.044 A 
ATOM     10  C   UNL     1      44.961 110.446  83.163  0.00  0.00    +0.004 A 
ATOM     11  C   UNL     1      46.180 110.781  82.483  0.00  0.00    +0.000 A 
ATOM     12  C   UNL     1      46.154 111.363  81.183  0.00  0.00    +0.002 A 
ATOM     13  C   UNL     1      44.886 111.621  80.534  0.00  0.00    -0.065 A 
ATOM     14  C   UNL     1      43.646 111.284  81.221  0.00  0.00    +0.005 A 
BRANCH  13  15
ATOM     15  C   UNL     1      44.858 112.243  79.162  0.00  0.00    -0.051 C 
BRANCH  15  16
ATOM     16  N   UNL     1      46.007 111.853  78.288  0.00  0.00    +0.381 N 
ATOM     17  H   UNL     1      46.892 112.029  78.739  0.00  0.00    -0.090 HD
ATOM     18  H   UNL     1      46.010 112.390  77.431  0.00  0.00    -0.090 HD
ATOM     19  H   UNL     1      45.981 110.876  78.035  0.00  0.00    -0.090 HD
ENDBRANCH  15  16
ENDBRANCH  13  15
ENDBRANCH   1   9
BRANCH   5  20
ATOM     20  C   UNL     1      38.577 112.581  86.184  0.00  0.00    +0.055 A 
ATOM     21  C   UNL     1      38.171 113.944  86.230  0.00  0.00    +0.123 A 
ATOM     22  N   UNL     1      38.028 114.653  87.366  0.00  0.00    -0.262 NA
ATOM     23  C   UNL     1      38.290 114.056  88.542  0.00  0.00    +0.114 A 
ATOM     24  C   UNL     1      38.704 112.697  88.661  0.00  0.00    -0.028 A 
ATOM     25  C   UNL     1      38.853 111.931  87.435  0.00  0.00    +0.019 A 
BRANCH  24  26
ATOM     26  C   UNL     1      38.997 112.101  89.999  0.00  0.00    +0.041 C 
BRANCH  26  27
ATOM     27  C   UNL     1      38.815 113.088  91.146  0.00  0.00    +0.040 C 
BRANCH  27  28
ATOM     28  C   UNL     1      40.041 113.830  91.616  0.00  0.00    -0.047 A 
ATOM     29  C   UNL     1      40.048 115.292  91.629  0.00  0.00    +0.003 A 
ATOM     30  C   UNL     1      41.203 116.007  92.081  0.00  0.00    +0.000 A 
ATOM     31  C   UNL     1      42.390 115.302  92.530  0.00  0.00    +0.000 A 
ATOM     32  C   UNL     1      42.398 113.862  92.523  0.00  0.00    +0.000 A 
ATOM     33  C   UNL     1      41.215 113.131  92.063  0.00  0.00    +0.003 A 
ENDBRANCH  27  28
ENDBRANCH  26  27
ENDBRANCH  24  26
ENDBRANCH   5  20
TORSDOF 7
ENDMDL
MODEL 2
REMARK VINA RESULT:      -7.5      3.652      6.619
REMARK  Name = LIGAND
REMARK  7 active torsions:
REMARK  status: ('A' for Active; 'I' for Inactive)
REMARK    1  A    between atoms: C_1  and  C_26
REMARK    2  A    between atoms: C_6  and  C_11
REMARK    3  A    between atoms: C_11  and  N_14
REMARK    4  A    between atoms: C_24  and  C_35
REMARK    5  A    between atoms: C_40  and  C_42
REMARK    6  A    between atoms: C_42  and  C_47
REMARK    7  A    between atoms: C_47  and  C_50
REMARK                            x       y       z     vdW  Elec       q    Type
REMARK                         _______ _______ _______ _____ _____    ______ ____
ROOT
ATOM      1  C   UNL     1      40.868 112.790  85.615  0.00  0.00    +0.022 C 
ATOM      2  C   UNL     1      40.785 111.246  85.289  0.00  0.00    +0.027 C 
ATOM      3  C   UNL     1      42.136 110.553  85.549  0.00  0.00    +0.108 C 
ATOM      4  N   UNL     1      42.641 110.774  86.942  0.00  0.00    -0.297 N 
ATOM      5  C   UNL     1      42.770 109.709  87.849  0.00  0.00    +0.248 C 
ATOM      6  O   UNL     1      42.460 108.559  87.566  0.00  0.00    -0.270 OA
ATOM      7  C   UNL     1      42.855 112.225  87.181  0.00  0.00    +0.108 C 
ATOM      8  C   UNL     1      41.470 112.974  87.070  0.00  0.00    +0.027 C 
ENDROOT
BRANCH   1   9
ATOM      9  C   UNL     1      39.518 113.501  85.385  0.00  0.00    -0.044 A 
ATOM     10  C   UNL     1      39.087 113.744  84.014  0.00  0.00    +0.004 A 
ATOM     11  C   UNL     1      37.844 114.407  83.737  0.00  0.00    +0.000 A 
ATOM     12  C   UNL     1      36.999 114.846  84.797  0.00  0.00    +0.002 A 
ATOM     13  C   UNL     1      37.393 114.623  86.172  0.00  0.00    -0.065 A 
ATOM     14  C   UNL     1      38.654 113.952  86.457  0.00  0.00    +0.005 A 
BRANCH  13  15
ATOM     15  C   UNL     1      36.503 115.093  87.293  0.00  0.00    -0.051 C 
BRANCH  15  16
ATOM     16  N   UNL     1      36.313 116.575  87.346  0.00  0.00    +0.381 N 
ATOM     17  H   UNL     1      35.592 116.833  88.004  0.00  0.00    -0.090 HD
ATOM     18  H   UNL     1      36.023 116.937  86.447  0.00  0.00    -0.090 HD
ATOM     19  H   UNL     1      37.157 117.060  87.613  0.00  0.00    -0.090 HD
ENDBRANCH  15  16
ENDBRANCH  13  15
ENDBRANCH   1   9
BRANCH   5  20
ATOM     20  C   UNL     1      43.330 109.850  89.237  0.00  0.00    +0.055 A 
ATOM     21  C   UNL     1      44.596 109.292  89.575  0.00  0.00    +0.123 A 
ATOM     22  N   UNL     1      45.148 109.356  90.801  0.00  0.00    -0.262 NA
ATOM     23  C   UNL     1      44.473 109.973  91.787  0.00  0.00    +0.114 A 
ATOM     24  C   UNL     1      43.197 110.582  91.606  0.00  0.00    -0.028 A 
ATOM     25  C   UNL     1      42.604 110.518  90.281  0.00  0.00    +0.019 A 
BRANCH  24  26
ATOM     26  C   UNL     1      42.493 111.236  92.751  0.00  0.00    +0.041 C 
BRANCH  26  27
ATOM     27  C   UNL     1      42.850 112.709  92.909  0.00  0.00    +0.040 C 
BRANCH  27  28
ATOM     28  C   UNL     1      41.857 113.718  92.390  0.00  0.00    -0.047 A 
ATOM     29  C   UNL     1      40.635 113.264  91.730  0.00  0.00    +0.003 A 
ATOM     30  C   UNL     1      39.680 114.212  91.240  0.00  0.00    +0.000 A 
ATOM     31  C   UNL     1      39.905 115.640  91.385  0.00  0.00    +0.000 A 
ATOM     32  C   UNL     1      41.103 116.102  92.034  0.00  0.00    +0.000 A 
ATOM     33  C   UNL     1      42.079 115.131  92.536  0.00  0.00    +0.003 A 
ENDBRANCH  27  28
ENDBRANCH  26  27
ENDBRANCH  24  26
ENDBRANCH   5  20
TORSDOF 7
ENDMDL
MODEL 3
REMARK VINA RESULT:      -7.3      6.009      9.374
REMARK  Name = LIGAND
REMARK  7 active torsions:
REMARK  status: ('A' for Active; 'I' for Inactive)
REMARK    1  A    between atoms: C_1  and  C_26
REMARK    2  A    between atoms: C_6  and  C_11
REMARK    3  A    between atoms: C_11  and  N_14
REMARK    4  A    between atoms: C_24  and  C_35
REMARK    5  A    between atoms: C_40  and  C_42
REMARK    6  A    between atoms: C_42  and  C_47
REMARK    7  A    between atoms: C_47  and  C_50
REMARK                            x       y       z     vdW  Elec       q    Type
REMARK                         _______ _______ _______ _____ _____    ______ ____
ROOT
ATOM      1  C   UNL     1      38.063 113.752  83.645  0.00  0.00    +0.022 C 
ATOM      2  C   UNL     1      37.987 115.229  83.091  0.00  0.00    +0.027 C 
ATOM      3  C   UNL     1      37.379 115.258  81.676  0.00  0.00    +0.108 C 
ATOM      4  N   UNL     1      36.035 114.598  81.610  0.00  0.00    -0.297 N 
ATOM      5  C   UNL     1      34.875 115.333  81.313  0.00  0.00    +0.248 C 
ATOM      6  O   UNL     1      34.891 116.540  81.115  0.00  0.00    -0.270 OA
ATOM      7  C   UNL     1      36.153 113.168  81.994  0.00  0.00    +0.108 C 
ATOM      8  C   UNL     1      36.638 113.074  83.493  0.00  0.00    +0.027 C 
ENDROOT
BRANCH   1   9
ATOM      9  C   UNL     1      38.648 113.702  85.073  0.00  0.00    -0.044 A 
ATOM     10  C   UNL     1      39.876 112.948  85.294  0.00  0.00    +0.004 A 
ATOM     11  C   UNL     1      40.463 112.859  86.600  0.00  0.00    +0.000 A 
ATOM     12  C   UNL     1      39.860 113.506  87.717  0.00  0.00    +0.002 A 
ATOM     13  C   UNL     1      38.639 114.263  87.539  0.00  0.00    -0.065 A 
ATOM     14  C   UNL     1      38.039 114.355  86.214  0.00  0.00    +0.005 A 
BRANCH  13  15
ATOM     15  C   UNL     1      37.997 114.942  88.721  0.00  0.00    -0.051 C 
BRANCH  15  16
ATOM     16  N   UNL     1      36.959 115.954  88.358  0.00  0.00    +0.381 N 
ATOM     17  H   UNL     1      36.091 115.515  88.090  0.00  0.00    -0.090 HD
ATOM     18  H   UNL     1      37.254 116.510  87.567  0.00  0.00    -0.090 HD
ATOM     19  H   UNL     1      36.759 116.588  89.119  0.00  0.00    -0.090 HD
ENDBRANCH  15  16
ENDBRANCH  13  15
ENDBRANCH   1   9
BRANCH   5  20
ATOM     20  C   UNL     1      33.508 114.723  81.168  0.00  0.00    +0.055 A 
ATOM     21  C   UNL     1      32.850 114.697  79.906  0.00  0.00    +0.123 A 
ATOM     22  N   UNL     1      31.618 114.193  79.705  0.00  0.00    -0.262 NA
ATOM     23  C   UNL     1      30.945 113.684  80.753  0.00  0.00    +0.114 A 
ATOM     24  C   UNL     1      31.470 113.636  82.077  0.00  0.00    -0.028 A 
ATOM     25  C   UNL     1      32.802 114.175  82.292  0.00  0.00    +0.019 A 
BRANCH  24  26
ATOM     26  C   UNL     1      30.660 113.072  83.200  0.00  0.00    +0.041 C 
BRANCH  26  27
ATOM     27  C   UNL     1      29.759 114.106  83.864  0.00  0.00    +0.040 C 
BRANCH  27  28
ATOM     28  C   UNL     1      30.362 114.935  84.970  0.00  0.00    -0.047 A 
ATOM     29  C   UNL     1      30.917 116.254  84.671  0.00  0.00    +0.003 A 
ATOM     30  C   UNL     1      31.485 117.054  85.714  0.00  0.00    +0.000 A 
ATOM     31  C   UNL     1      31.526 116.576  87.084  0.00  0.00    +0.000 A 
ATOM     32  C   UNL     1      30.983 115.279  87.394  0.00  0.00    +0.000 A 
ATOM     33  C   UNL     1      30.400 114.462  86.327  0.00  0.00    +0.003 A 
ENDBRANCH  27  28
ENDBRANCH  26  27
ENDBRANCH  24  26
ENDBRANCH   5  20
TORSDOF 7
ENDMDL
MODEL 4
REMARK VINA RESULT:      -7.2      6.416      7.729
REMARK  Name = LIGAND
REMARK  7 active torsions:
REMARK  status: ('A' for Active; 'I' for Inactive)
REMARK    1  A    between atoms: C_1  and  C_26
REMARK    2  A    between atoms: C_6  and  C_11
REMARK    3  A    between atoms: C_11  and  N_14
REMARK    4  A    between atoms: C_24  and  C_35
REMARK    5  A    between atoms: C_40  and  C_42
REMARK    6  A    between atoms: C_42  and  C_47
REMARK    7  A    between atoms: C_47  and  C_50
REMARK                            x       y       z     vdW  Elec       q    Type
REMARK                         _______ _______ _______ _____ _____    ______ ____
ROOT
ATOM      1  C   UNL     1      44.917 105.462  89.330  0.00  0.00    +0.022 C 
ATOM      2  C   UNL     1      43.363 105.346  89.071  0.00  0.00    +0.027 C 
ATOM      3  C   UNL     1      42.632 106.629  89.507  0.00  0.00    +0.108 C 
ATOM      4  N   UNL     1      43.187 107.860  88.859  0.00  0.00    -0.297 N 
ATOM      5  C   UNL     1      42.419 108.622  87.962  0.00  0.00    +0.248 C 
ATOM      6  O   UNL     1      41.277 108.317  87.647  0.00  0.00    -0.270 OA
ATOM      7  C   UNL     1      44.614 108.034  89.235  0.00  0.00    +0.108 C 
ATOM      8  C   UNL     1      45.445 106.810  88.684  0.00  0.00    +0.027 C 
ENDROOT
BRANCH   1   9
ATOM      9  C   UNL     1      45.673 104.195  88.876  0.00  0.00    -0.044 A 
ATOM     10  C   UNL     1      47.101 104.300  88.603  0.00  0.00    +0.004 A 
ATOM     11  C   UNL     1      47.856 103.158  88.172  0.00  0.00    +0.000 A 
ATOM     12  C   UNL     1      47.228 101.890  88.000  0.00  0.00    +0.002 A 
ATOM     13  C   UNL     1      45.812 101.746  88.260  0.00  0.00    -0.065 A 
ATOM     14  C   UNL     1      45.041 102.903  88.697  0.00  0.00    +0.005 A 
BRANCH  13  15
ATOM     15  C   UNL     1      45.146 100.408  88.072  0.00  0.00    -0.051 C 
BRANCH  15  16
ATOM     16  N   UNL     1      46.097  99.261  87.950  0.00  0.00    +0.381 N 
ATOM     17  H   UNL     1      45.616  98.375  87.992  0.00  0.00    -0.090 HD
ATOM     18  H   UNL     1      46.765  99.260  88.708  0.00  0.00    -0.090 HD
ATOM     19  H   UNL     1      46.617  99.285  87.084  0.00  0.00    -0.090 HD
ENDBRANCH  15  16
ENDBRANCH  13  15
ENDBRANCH   1   9
BRANCH   5  20
ATOM     20  C   UNL     1      42.890 109.901  87.328  0.00  0.00    +0.055 A 
ATOM     21  C   UNL     1      43.783 109.882  86.219  0.00  0.00    +0.123 A 
ATOM     22  N   UNL     1      44.267 110.985  85.618  0.00  0.00    -0.262 NA
ATOM     23  C   UNL     1      43.904 112.193  86.084  0.00  0.00    +0.114 A 
ATOM     24  C   UNL     1      43.016 112.377  87.184  0.00  0.00    -0.028 A 
ATOM     25  C   UNL     1      42.490 111.186  87.830  0.00  0.00    +0.019 A 
BRANCH  24  26
ATOM     26  C   UNL     1      42.668 113.749  87.664  0.00  0.00    +0.041 C 
BRANCH  26  27
ATOM     27  C   UNL     1      41.494 113.762  88.635  0.00  0.00    +0.040 C 
BRANCH  27  28
ATOM     28  C   UNL     1      41.781 114.178  90.056  0.00  0.00    -0.047 A 
ATOM     29  C   UNL     1      41.621 115.576  90.452  0.00  0.00    +0.003 A 
ATOM     30  C   UNL     1      41.882 115.981  91.800  0.00  0.00    +0.000 A 
ATOM     31  C   UNL     1      42.314 115.019  92.799  0.00  0.00    +0.000 A 
ATOM     32  C   UNL     1      42.475 113.639  92.423  0.00  0.00    +0.000 A 
ATOM     33  C   UNL     1      42.206 113.225  91.044  0.00  0.00    +0.003 A 
ENDBRANCH  27  28
ENDBRANCH  26  27
ENDBRANCH  24  26
ENDBRANCH   5  20
TORSDOF 7
ENDMDL
MODEL 5
REMARK VINA RESULT:      -7.2      4.841      6.660
REMARK  Name = LIGAND
REMARK  7 active torsions:
REMARK  status: ('A' for Active; 'I' for Inactive)
REMARK    1  A    between atoms: C_1  and  C_26
REMARK    2  A    between atoms: C_6  and  C_11
REMARK    3  A    between atoms: C_11  and  N_14
REMARK    4  A    between atoms: C_24  and  C_35
REMARK    5  A    between atoms: C_40  and  C_42
REMARK    6  A    between atoms: C_42  and  C_47
REMARK    7  A    between atoms: C_47  and  C_50
REMARK                            x       y       z     vdW  Elec       q    Type
REMARK                         _______ _______ _______ _____ _____    ______ ____
ROOT
ATOM      1  C   UNL     1      42.457 111.458  83.126  0.00  0.00    +0.022 C 
ATOM      2  C   UNL     1      42.141 110.201  84.029  0.00  0.00    +0.027 C 
ATOM      3  C   UNL     1      40.752 110.325  84.684  0.00  0.00    +0.108 C 
ATOM      4  N   UNL     1      39.659 110.548  83.684  0.00  0.00    -0.297 N 
ATOM      5  C   UNL     1      38.650 109.592  83.480  0.00  0.00    +0.248 C 
ATOM      6  O   UNL     1      38.619 108.527  84.083  0.00  0.00    -0.270 OA
ATOM      7  C   UNL     1      39.896 111.816  82.946  0.00  0.00    +0.108 C 
ATOM      8  C   UNL     1      41.244 111.694  82.133  0.00  0.00    +0.027 C 
ENDROOT
BRANCH   1   9
ATOM      9  C   UNL     1      43.834 111.344  82.440  0.00  0.00    -0.044 A 
ATOM     10  C   UNL     1      44.958 110.838  83.218  0.00  0.00    +0.004 A 
ATOM     11  C   UNL     1      46.264 110.715  82.636  0.00  0.00    +0.000 A 
ATOM     12  C   UNL     1      46.497 111.086  81.280  0.00  0.00    +0.002 A 
ATOM     13  C   UNL     1      45.407 111.593  80.475  0.00  0.00    -0.065 A 
ATOM     14  C   UNL     1      44.079 111.721  81.062  0.00  0.00    +0.005 A 
BRANCH  13  15
ATOM     15  C   UNL     1      45.654 111.993  79.043  0.00  0.00    -0.051 C 
BRANCH  15  16
ATOM     16  N   UNL     1      44.410 112.187  78.237  0.00  0.00    +0.381 N 
ATOM     17  H   UNL     1      44.503 111.795  77.312  0.00  0.00    -0.090 HD
ATOM     18  H   UNL     1      44.208 113.170  78.112  0.00  0.00    -0.090 HD
ATOM     19  H   UNL     1      43.603 111.762  78.669  0.00  0.00    -0.090 HD
ENDBRANCH  15  16
ENDBRANCH  13  15
ENDBRANCH   1   9
BRANCH   5  20
ATOM     20  C   UNL     1      37.490 109.780  82.543  0.00  0.00    +0.055 A 
ATOM     21  C   UNL     1      37.263 108.874  81.468  0.00  0.00    +0.123 A 
ATOM     22  N   UNL     1      36.263 108.994  80.575  0.00  0.00    -0.262 NA
ATOM     23  C   UNL     1      35.418 110.035  80.681  0.00  0.00    +0.114 A 
ATOM     24  C   UNL     1      35.512 111.024  81.703  0.00  0.00    -0.028 A 
ATOM     25  C   UNL     1      36.588 110.891  82.670  0.00  0.00    +0.019 A 
BRANCH  24  26
ATOM     26  C   UNL     1      34.549 112.166  81.752  0.00  0.00    +0.041 C 
BRANCH  26  27
ATOM     27  C   UNL     1      34.973 113.343  80.883  0.00  0.00    +0.040 C 
BRANCH  27  28
ATOM     28  C   UNL     1      35.588 114.529  81.582  0.00  0.00    -0.047 A 
ATOM     29  C   UNL     1      34.778 115.716  81.851  0.00  0.00    +0.003 A 
ATOM     30  C   UNL     1      35.348 116.846  82.522  0.00  0.00    +0.000 A 
ATOM     31  C   UNL     1      36.738 116.840  82.944  0.00  0.00    +0.000 A 
ATOM     32  C   UNL     1      37.547 115.677  82.686  0.00  0.00    +0.000 A 
ATOM     33  C   UNL     1      36.962 114.522  82.002  0.00  0.00    +0.003 A 
ENDBRANCH  27  28
ENDBRANCH  26  27
ENDBRANCH  24  26
ENDBRANCH   5  20
TORSDOF 7
ENDMDL
MODEL 6
REMARK VINA RESULT:      -7.0      4.111      9.250
REMARK  Name = LIGAND
REMARK  7 active torsions:
REMARK  status: ('A' for Active; 'I' for Inactive)
REMARK    1  A    between atoms: C_1  and  C_26
REMARK    2  A    between atoms: C_6  and  C_11
REMARK    3  A    between atoms: C_11  and  N_14
REMARK    4  A    between atoms: C_24  and  C_35
REMARK    5  A    between atoms: C_40  and  C_42
REMARK    6  A    between atoms: C_42  and  C_47
REMARK    7  A    between atoms: C_47  and  C_50
REMARK                            x       y       z     vdW  Elec       q    Type
REMARK                         _______ _______ _______ _____ _____    ______ ____
ROOT
ATOM      1  C   UNL     1      34.870 115.731  87.043  0.00  0.00    +0.022 C 
ATOM      2  C   UNL     1      34.919 115.697  85.465  0.00  0.00    +0.027 C 
ATOM      3  C   UNL     1      36.362 115.867  84.953  0.00  0.00    +0.108 C 
ATOM      4  N   UNL     1      37.305 114.859  85.535  0.00  0.00    -0.297 N 
ATOM      5  C   UNL     1      37.929 113.892  84.728  0.00  0.00    +0.248 C 
ATOM      6  O   UNL     1      37.724 113.805  83.525  0.00  0.00    -0.270 OA
ATOM      7  C   UNL     1      37.358 115.006  87.012  0.00  0.00    +0.108 C 
ATOM      8  C   UNL     1      35.930 114.699  87.612  0.00  0.00    +0.027 C 
ENDROOT
BRANCH   1   9
ATOM      9  C   UNL     1      33.435 115.538  87.580  0.00  0.00    -0.044 A 
ATOM     10  C   UNL     1      32.518 116.670  87.533  0.00  0.00    +0.004 A 
ATOM     11  C   UNL     1      31.175 116.552  88.023  0.00  0.00    +0.000 A 
ATOM     12  C   UNL     1      30.701 115.324  88.569  0.00  0.00    +0.002 A 
ATOM     13  C   UNL     1      31.582 114.177  88.634  0.00  0.00    -0.065 A 
ATOM     14  C   UNL     1      32.948 114.292  88.139  0.00  0.00    +0.005 A 
BRANCH  13  15
ATOM     15  C   UNL     1      31.085 112.880  89.218  0.00  0.00    -0.051 C 
BRANCH  15  16
ATOM     16  N   UNL     1      30.039 112.198  88.396  0.00  0.00    +0.381 N 
ATOM     17  H   UNL     1      30.450 111.596  87.699  0.00  0.00    -0.090 HD
ATOM     18  H   UNL     1      29.474 112.871  87.895  0.00  0.00    -0.090 HD
ATOM     19  H   UNL     1      29.417 111.635  88.958  0.00  0.00    -0.090 HD
ENDBRANCH  15  16
ENDBRANCH  13  15
ENDBRANCH   1   9
BRANCH   5  20
ATOM     20  C   UNL     1      38.934 112.895  85.235  0.00  0.00    +0.055 A 
ATOM     21  C   UNL     1      38.635 111.504  85.260  0.00  0.00    +0.123 A 
ATOM     22  N   UNL     1      39.473 110.558  85.724  0.00  0.00    -0.262 NA
ATOM     23  C   UNL     1      40.671 110.931  86.208  0.00  0.00    +0.114 A 
ATOM     24  C   UNL     1      41.117 112.285  86.249  0.00  0.00    -0.028 A 
ATOM     25  C   UNL     1      40.213 113.305  85.743  0.00  0.00    +0.019 A 
BRANCH  24  26
ATOM     26  C   UNL     1      42.454 112.632  86.818  0.00  0.00    +0.041 C 
BRANCH  26  27
ATOM     27  C   UNL     1      42.557 114.088  87.256  0.00  0.00    +0.040 C 
BRANCH  27  28
ATOM     28  C   UNL     1      41.917 114.458  88.571  0.00  0.00    -0.047 A 
ATOM     29  C   UNL     1      42.295 113.747  89.790  0.00  0.00    +0.003 A 
ATOM     30  C   UNL     1      41.700 114.095  91.046  0.00  0.00    +0.000 A 
ATOM     31  C   UNL     1      40.710 115.153  91.135  0.00  0.00    +0.000 A 
ATOM     32  C   UNL     1      40.327 115.861  89.942  0.00  0.00    +0.000 A 
ATOM     33  C   UNL     1      40.938 115.507  88.658  0.00  0.00    +0.003 A 
ENDBRANCH  27  28
ENDBRANCH  26  27
ENDBRANCH  24  26
ENDBRANCH   5  20
TORSDOF 7
ENDMDL
MODEL 7
REMARK VINA RESULT:      -6.9      3.948      7.243
REMARK  Name = LIGAND
REMARK  7 active torsions:
REMARK  status: ('A' for Active; 'I' for Inactive)
REMARK    1  A    between atoms: C_1  and  C_26
REMARK    2  A    between atoms: C_6  and  C_11
REMARK    3  A    between atoms: C_11  and  N_14
REMARK    4  A    between atoms: C_24  and  C_35
REMARK    5  A    between atoms: C_40  and  C_42
REMARK    6  A    between atoms: C_42  and  C_47
REMARK    7  A    between atoms: C_47  and  C_50
REMARK                            x       y       z     vdW  Elec       q    Type
REMARK                         _______ _______ _______ _____ _____    ______ ____
ROOT
ATOM      1  C   UNL     1      36.615 113.774  83.311  0.00  0.00    +0.022 C 
ATOM      2  C   UNL     1      36.720 112.292  83.846  0.00  0.00    +0.027 C 
ATOM      3  C   UNL     1      38.184 111.812  83.861  0.00  0.00    +0.108 C 
ATOM      4  N   UNL     1      39.083 112.722  84.642  0.00  0.00    -0.297 N 
ATOM      5  C   UNL     1      39.713 112.290  85.821  0.00  0.00    +0.248 C 
ATOM      6  O   UNL     1      39.550 111.169  86.284  0.00  0.00    -0.270 OA
ATOM      7  C   UNL     1      39.085 114.078  84.034  0.00  0.00    +0.108 C 
ATOM      8  C   UNL     1      37.630 114.684  84.120  0.00  0.00    +0.027 C 
ENDROOT
BRANCH   1   9
ATOM      9  C   UNL     1      35.158 114.284  83.310  0.00  0.00    -0.044 A 
ATOM     10  C   UNL     1      34.837 115.468  84.097  0.00  0.00    +0.004 A 
ATOM     11  C   UNL     1      33.499 115.986  84.140  0.00  0.00    +0.000 A 
ATOM     12  C   UNL     1      32.447 115.353  83.414  0.00  0.00    +0.002 A 
ATOM     13  C   UNL     1      32.727 114.175  82.622  0.00  0.00    -0.065 A 
ATOM     14  C   UNL     1      34.084 113.645  82.577  0.00  0.00    +0.005 A 
BRANCH  13  15
ATOM     15  C   UNL     1      31.615 113.501  81.861  0.00  0.00    -0.051 C 
BRANCH  15  16
ATOM     16  N   UNL     1      31.302 112.116  82.328  0.00  0.00    +0.381 N 
ATOM     17  H   UNL     1      31.659 111.420  81.690  0.00  0.00    -0.090 HD
ATOM     18  H   UNL     1      30.303 111.968  82.383  0.00  0.00    -0.090 HD
ATOM     19  H   UNL     1      31.690 111.923  83.240  0.00  0.00    -0.090 HD
ENDBRANCH  15  16
ENDBRANCH  13  15
ENDBRANCH   1   9
BRANCH   5  20
ATOM     20  C   UNL     1      40.676 113.128  86.615  0.00  0.00    +0.055 A 
ATOM     21  C   UNL     1      42.081 112.932  86.502  0.00  0.00    +0.123 A 
ATOM     22  N   UNL     1      43.001 113.625  87.200  0.00  0.00    -0.262 NA
ATOM     23  C   UNL     1      42.586 114.562  88.072  0.00  0.00    +0.114 A 
ATOM     24  C   UNL     1      41.213 114.876  88.295  0.00  0.00    -0.028 A 
ATOM     25  C   UNL     1      40.222 114.131  87.538  0.00  0.00    +0.019 A 
BRANCH  24  26
ATOM     26  C   UNL     1      40.820 115.917  89.293  0.00  0.00    +0.041 C 
BRANCH  26  27
ATOM     27  C   UNL     1      40.076 115.343  90.493  0.00  0.00    +0.040 C 
BRANCH  27  28
ATOM     28  C   UNL     1      40.827 114.371  91.368  0.00  0.00    -0.047 A 
ATOM     29  C   UNL     1      40.397 112.976  91.441  0.00  0.00    +0.003 A 
ATOM     30  C   UNL     1      41.106 112.041  92.262  0.00  0.00    +0.000 A 
ATOM     31  C   UNL     1      42.261 112.456  93.039  0.00  0.00    +0.000 A 
ATOM     32  C   UNL     1      42.697 113.827  92.975  0.00  0.00    +0.000 A 
ATOM     33  C   UNL     1      41.971 114.782  92.134  0.00  0.00    +0.003 A 
ENDBRANCH  27  28
ENDBRANCH  26  27
ENDBRANCH  24  26
ENDBRANCH   5  20
TORSDOF 7
ENDMDL
MODEL 8
REMARK VINA RESULT:      -6.7      4.424      7.142
REMARK  Name = LIGAND
REMARK  7 active torsions:
REMARK  status: ('A' for Active; 'I' for Inactive)
REMARK    1  A    between atoms: C_1  and  C_26
REMARK    2  A    between atoms: C_6  and  C_11
REMARK    3  A    between atoms: C_11  and  N_14
REMARK    4  A    between atoms: C_24  and  C_35
REMARK    5  A    between atoms: C_40  and  C_42
REMARK    6  A    between atoms: C_42  and  C_47
REMARK    7  A    between atoms: C_47  and  C_50
REMARK                            x       y       z     vdW  Elec       q    Type
REMARK                         _______ _______ _______ _____ _____    ______ ____
ROOT
ATOM      1  C   UNL     1      42.948 109.900  86.822  0.00  0.00    +0.022 C 
ATOM      2  C   UNL     1      43.417 111.043  85.839  0.00  0.00    +0.027 C 
ATOM      3  C   UNL     1      42.246 111.540  84.970  0.00  0.00    +0.108 C 
ATOM      4  N   UNL     1      41.071 111.990  85.783  0.00  0.00    -0.297 N 
ATOM      5  C   UNL     1      40.657 113.332  85.787  0.00  0.00    +0.248 C 
ATOM      6  O   UNL     1      41.237 114.204  85.153  0.00  0.00    -0.270 OA
ATOM      7  C   UNL     1      40.551 110.858  86.593  0.00  0.00    +0.108 C 
ATOM      8  C   UNL     1      41.665 110.396  87.610  0.00  0.00    +0.027 C 
ENDROOT
BRANCH   1   9
ATOM      9  C   UNL     1      44.101 109.404  87.721  0.00  0.00    -0.044 A 
ATOM     10  C   UNL     1      45.168 108.621  87.111  0.00  0.00    +0.004 A 
ATOM     11  C   UNL     1      46.263 108.127  87.896  0.00  0.00    +0.000 A 
ATOM     12  C   UNL     1      46.334 108.388  89.296  0.00  0.00    +0.002 A 
ATOM     13  C   UNL     1      45.292 109.160  89.938  0.00  0.00    -0.065 A 
ATOM     14  C   UNL     1      44.178 109.663  89.144  0.00  0.00    +0.005 A 
BRANCH  13  15
ATOM     15  C   UNL     1      45.363 109.431  91.419  0.00  0.00    -0.051 C 
BRANCH  15  16
ATOM     16  N   UNL     1      44.245 110.275  91.942  0.00  0.00    +0.381 N 
ATOM     17  H   UNL     1      43.708 110.684  91.193  0.00  0.00    -0.090 HD
ATOM     18  H   UNL     1      44.599 111.044  92.495  0.00  0.00    -0.090 HD
ATOM     19  H   UNL     1      43.608 109.749  92.523  0.00  0.00    -0.090 HD
ENDBRANCH  15  16
ENDBRANCH  13  15
ENDBRANCH   1   9
BRANCH   5  20
ATOM     20  C   UNL     1      39.450 113.838  86.528  0.00  0.00    +0.055 A 
ATOM     21  C   UNL     1      39.556 114.298  87.871  0.00  0.00    +0.123 A 
ATOM     22  N   UNL     1      38.517 114.739  88.604  0.00  0.00    -0.262 NA
ATOM     23  C   UNL     1      37.289 114.744  88.055  0.00  0.00    +0.114 A 
ATOM     24  C   UNL     1      37.022 114.317  86.722  0.00  0.00    -0.028 A 
ATOM     25  C   UNL     1      38.145 113.846  85.929  0.00  0.00    +0.019 A 
BRANCH  24  26
ATOM     26  C   UNL     1      35.629 114.332  86.179  0.00  0.00    +0.041 C 
BRANCH  26  27
ATOM     27  C   UNL     1      35.153 115.727  85.794  0.00  0.00    +0.040 C 
BRANCH  27  28
ATOM     28  C   UNL     1      33.813 116.169  86.327  0.00  0.00    -0.047 A 
ATOM     29  C   UNL     1      33.608 116.290  87.769  0.00  0.00    +0.003 A 
ATOM     30  C   UNL     1      32.343 116.716  88.287  0.00  0.00    +0.000 A 
ATOM     31  C   UNL     1      31.240 117.033  87.397  0.00  0.00    +0.000 A 
ATOM     32  C   UNL     1      31.428 116.919  85.974  0.00  0.00    +0.000 A 
ATOM     33  C   UNL     1      32.723 116.485  85.445  0.00  0.00    +0.003 A 
ENDBRANCH  27  28
ENDBRANCH  26  27
ENDBRANCH  24  26
ENDBRANCH   5  20
TORSDOF 7
ENDMDL
MODEL 9
REMARK VINA RESULT:      -6.6      3.616      5.210
REMARK  Name = LIGAND
REMARK  7 active torsions:
REMARK  status: ('A' for Active; 'I' for Inactive)
REMARK    1  A    between atoms: C_1  and  C_26
REMARK    2  A    between atoms: C_6  and  C_11
REMARK    3  A    between atoms: C_11  and  N_14
REMARK    4  A    between atoms: C_24  and  C_35
REMARK    5  A    between atoms: C_40  and  C_42
REMARK    6  A    between atoms: C_42  and  C_47
REMARK    7  A    between atoms: C_47  and  C_50
REMARK                            x       y       z     vdW  Elec       q    Type
REMARK                         _______ _______ _______ _____ _____    ______ ____
ROOT
ATOM      1  C   UNL     1      40.823 110.249  83.412  0.00  0.00    +0.022 C 
ATOM      2  C   UNL     1      39.865 110.837  82.303  0.00  0.00    +0.027 C 
ATOM      3  C   UNL     1      38.403 110.425  82.560  0.00  0.00    +0.108 C 
ATOM      4  N   UNL     1      37.926 110.806  83.929  0.00  0.00    -0.297 N 
ATOM      5  C   UNL     1      36.905 111.754  84.109  0.00  0.00    +0.248 C 
ATOM      6  O   UNL     1      36.369 112.332  83.173  0.00  0.00    -0.270 OA
ATOM      7  C   UNL     1      38.749 110.124  84.961  0.00  0.00    +0.108 C 
ATOM      8  C   UNL     1      40.243 110.619  84.840  0.00  0.00    +0.027 C 
ENDROOT
BRANCH   1   9
ATOM      9  C   UNL     1      42.291 110.669  83.188  0.00  0.00    -0.044 A 
ATOM     10  C   UNL     1      43.064 111.129  84.335  0.00  0.00    +0.004 A 
ATOM     11  C   UNL     1      44.431 111.540  84.188  0.00  0.00    +0.000 A 
ATOM     12  C   UNL     1      45.069 111.510  82.914  0.00  0.00    +0.002 A 
ATOM     13  C   UNL     1      44.335 111.060  81.751  0.00  0.00    -0.065 A 
ATOM     14  C   UNL     1      42.946 110.643  81.895  0.00  0.00    +0.005 A 
BRANCH  13  15
ATOM     15  C   UNL     1      45.006 111.034  80.402  0.00  0.00    -0.051 C 
BRANCH  15  16
ATOM     16  N   UNL     1      44.530 112.092  79.459  0.00  0.00    +0.381 N 
ATOM     17  H   UNL     1      43.600 112.406  79.693  0.00  0.00    -0.090 HD
ATOM     18  H   UNL     1      44.484 111.741  78.512  0.00  0.00    -0.090 HD
ATOM     19  H   UNL     1      45.134 112.902  79.455  0.00  0.00    -0.090 HD
ENDBRANCH  15  16
ENDBRANCH  13  15
ENDBRANCH   1   9
BRANCH   5  20
ATOM     20  C   UNL     1      36.336 112.133  85.448  0.00  0.00    +0.055 A 
ATOM     21  C   UNL     1      35.517 111.226  86.177  0.00  0.00    +0.123 A 
ATOM     22  N   UNL     1      34.953 111.505  87.367  0.00  0.00    -0.262 NA
ATOM     23  C   UNL     1      35.155 112.716  87.915  0.00  0.00    +0.114 A 
ATOM     24  C   UNL     1      35.952 113.731  87.309  0.00  0.00    -0.028 A 
ATOM     25  C   UNL     1      36.565 113.427  86.027  0.00  0.00    +0.019 A 
BRANCH  24  26
ATOM     26  C   UNL     1      36.121 115.064  87.964  0.00  0.00    +0.041 C 
BRANCH  26  27
ATOM     27  C   UNL     1      35.333 116.172  87.277  0.00  0.00    +0.040 C 
BRANCH  27  28
ATOM     28  C   UNL     1      33.850 116.232  87.546  0.00  0.00    -0.047 A 
ATOM     29  C   UNL     1      33.348 116.021  88.903  0.00  0.00    +0.003 A 
ATOM     30  C   UNL     1      31.943 116.083  89.173  0.00  0.00    +0.000 A 
ATOM     31  C   UNL     1      30.990 116.352  88.111  0.00  0.00    +0.000 A 
ATOM     32  C   UNL     1      31.470 116.562  86.770  0.00  0.00    +0.000 A 
ATOM     33  C   UNL     1      32.908 116.500  86.495  0.00  0.00    +0.003 A 
ENDBRANCH  27  28
ENDBRANCH  26  27
ENDBRANCH  24  26
ENDBRANCH   5  20
TORSDOF 7
ENDMDL
