MODEL 1
REMARK VINA RESULT:      -8.9      0.000      0.000
REMARK  Name = LIGAND
REMARK  7 active torsions:
REMARK  status: ('A' for Active; 'I' for Inactive)
REMARK    1  A    between atoms: C_1  and  C_26
REMARK    2  A    between atoms: C_6  and  C_11
REMARK    3  A    between atoms: C_11  and  N_14
REMARK    4  A    between atoms: C_24  and  C_35
REMARK    5  A    between atoms: C_40  and  C_42
REMARK    6  A    between atoms: C_42  and  C_47
REMARK    7  A    between atoms: C_47  and  C_50
REMARK                            x       y       z     vdW  Elec       q    Type
REMARK                         _______ _______ _______ _____ _____    ______ ____
ROOT
ATOM      1  C   UNL     1      42.495 110.835  83.123  0.00  0.00    +0.022 C 
ATOM      2  C   UNL     1      41.387 110.252  82.160  0.00  0.00    +0.027 C 
ATOM      3  C   UNL     1      40.041 110.098  82.894  0.00  0.00    +0.108 C 
ATOM      4  N   UNL     1      39.577 111.375  83.525  0.00  0.00    -0.297 N 
ATOM      5  C   UNL     1      38.410 112.024  83.086  0.00  0.00    +0.248 C 
ATOM      6  O   UNL     1      37.727 111.601  82.163  0.00  0.00    -0.270 OA
ATOM      7  C   UNL     1      40.565 111.830  84.537  0.00  0.00    +0.108 C 
ATOM      8  C   UNL     1      41.933 112.145  83.817  0.00  0.00    +0.027 C 
ENDROOT
BRANCH   1   9
ATOM      9  C   UNL     1      43.846 111.021  82.401  0.00  0.00    -0.044 A 
ATOM     10  C   UNL     1      45.070 110.702  83.125  0.00  0.00    +0.004 A 
ATOM     11  C   UNL     1      46.356 110.860  82.509  0.00  0.00    +0.000 A 
ATOM     12  C   UNL     1      46.471 111.336  81.170  0.00  0.00    +0.002 A 
ATOM     13  C   UNL     1      45.279 111.665  80.418  0.00  0.00    -0.065 A 
ATOM     14  C   UNL     1      43.970 111.506  81.041  0.00  0.00    +0.005 A 
BRANCH  13  15
ATOM     15  C   UNL     1      45.399 112.175  79.005  0.00  0.00    -0.051 C 
BRANCH  15  16
ATOM     16  N   UNL     1      44.958 111.200  77.961  0.00  0.00    +0.381 N 
ATOM     17  H   UNL     1      44.473 111.660  77.206  0.00  0.00    -0.090 HD
ATOM     18  H   UNL     1      44.312 110.523  78.346  0.00  0.00    -0.090 HD
ATOM     19  H   UNL     1      45.733 110.690  77.562  0.00  0.00    -0.090 HD
ENDBRANCH  15  16
ENDBRANCH  13  15
ENDBRANCH   1   9
BRANCH   5  20
ATOM     20  C   UNL     1      37.853 113.270  83.717  0.00  0.00    +0.055 A 
ATOM     21  C   UNL     1      37.545 113.311  85.106  0.00  0.00    +0.123 A 
ATOM     22  N   UNL     1      37.021 114.381  85.734  0.00  0.00    -0.262 NA
ATOM     23  C   UNL     1      36.754 115.488  85.019  0.00  0.00    +0.114 A 
ATOM     24  C   UNL     1      37.008 115.603  83.621  0.00  0.00    -0.028 A 
ATOM     25  C   UNL     1      37.580 114.450  82.945  0.00  0.00    +0.019 A 
BRANCH  24  26
ATOM     26  C   UNL     1      36.671 116.858  82.883  0.00  0.00    +0.041 C 
BRANCH  26  27
ATOM     27  C   UNL     1      35.172 117.120  82.804  0.00  0.00    +0.040 C 
BRANCH  27  28
ATOM     28  C   UNL     1      34.325 116.072  82.128  0.00  0.00    -0.047 A 
ATOM     29  C   UNL     1      33.382 115.279  82.915  0.00  0.00    +0.003 A 
ATOM     30  C   UNL     1      32.566 114.287  82.283  0.00  0.00    +0.000 A 
ATOM     31  C   UNL     1      32.658 114.044  80.854  0.00  0.00    +0.000 A 
ATOM     32  C   UNL     1      33.582 114.817  80.066  0.00  0.00    +0.000 A 
ATOM     33  C   UNL     1      34.415 115.834  80.713  0.00  0.00    +0.003 A 
ENDBRANCH  27  28
ENDBRANCH  26  27
ENDBRANCH  24  26
ENDBRANCH   5  20
TORSDOF 7
ENDMDL
MODEL 2
REMARK VINA RESULT:      -8.5      3.894      6.566
REMARK  Name = LIGAND
REMARK  7 active torsions:
REMARK  status: ('A' for Active; 'I' for Inactive)
REMARK    1  A    between atoms: C_1  and  C_26
REMARK    2  A    between atoms: C_6  and  C_11
REMARK    3  A    between atoms: C_11  and  N_14
REMARK    4  A    between atoms: C_24  and  C_35
REMARK    5  A    between atoms: C_40  and  C_42
REMARK    6  A    between atoms: C_42  and  C_47
REMARK    7  A    between atoms: C_47  and  C_50
REMARK                            x       y       z     vdW  Elec       q    Type
REMARK                         _______ _______ _______ _____ _____    ______ ____
ROOT
ATOM      1  C   UNL     1      42.570 110.587  83.114  0.00  0.00    +0.022 C 
ATOM      2  C   UNL     1      41.356 110.845  82.137  0.00  0.00    +0.027 C 
ATOM      3  C   UNL     1      40.013 110.562  82.836  0.00  0.00    +0.108 C 
ATOM      4  N   UNL     1      39.846 111.339  84.106  0.00  0.00    -0.297 N 
ATOM      5  C   UNL     1      38.850 112.322  84.234  0.00  0.00    +0.248 C 
ATOM      6  O   UNL     1      38.086 112.611  83.322  0.00  0.00    -0.270 OA
ATOM      7  C   UNL     1      40.914 110.972  85.071  0.00  0.00    +0.108 C 
ATOM      8  C   UNL     1      42.315 111.375  84.466  0.00  0.00    +0.027 C 
ENDROOT
BRANCH   1   9
ATOM      9  C   UNL     1      43.925 110.889  82.441  0.00  0.00    -0.044 A 
ATOM     10  C   UNL     1      45.145 110.677  83.211  0.00  0.00    +0.004 A 
ATOM     11  C   UNL     1      46.434 110.946  82.642  0.00  0.00    +0.000 A 
ATOM     12  C   UNL     1      46.556 111.430  81.307  0.00  0.00    +0.002 A 
ATOM     13  C   UNL     1      45.368 111.654  80.510  0.00  0.00    -0.065 A 
ATOM     14  C   UNL     1      44.057 111.383  81.085  0.00  0.00    +0.005 A 
BRANCH  13  15
ATOM     15  C   UNL     1      45.496 112.172  79.101  0.00  0.00    -0.051 C 
BRANCH  15  16
ATOM     16  N   UNL     1      45.026 111.217  78.051  0.00  0.00    +0.381 N 
ATOM     17  H   UNL     1      44.092 111.439  77.740  0.00  0.00    -0.090 HD
ATOM     18  H   UNL     1      44.991 110.272  78.409  0.00  0.00    -0.090 HD
ATOM     19  H   UNL     1      45.626 111.215  77.239  0.00  0.00    -0.090 HD
ENDBRANCH  15  16
ENDBRANCH  13  15
ENDBRANCH   1   9
BRANCH   5  20
ATOM     20  C   UNL     1      38.586 113.092  85.498  0.00  0.00    +0.055 A 
ATOM     21  C   UNL     1      37.259 113.267  85.984  0.00  0.00    +0.123 A 
ATOM     22  N   UNL     1      36.945 113.964  87.092  0.00  0.00    -0.262 NA
ATOM     23  C   UNL     1      37.932 114.549  87.794  0.00  0.00    +0.114 A 
ATOM     24  C   UNL     1      39.309 114.464  87.437  0.00  0.00    -0.028 A 
ATOM     25  C   UNL     1      39.648 113.707  86.244  0.00  0.00    +0.019 A 
BRANCH  24  26
ATOM     26  C   UNL     1      40.354 115.155  88.252  0.00  0.00    +0.041 C 
BRANCH  26  27
ATOM     27  C   UNL     1      41.417 114.204  88.790  0.00  0.00    +0.040 C 
BRANCH  27  28
ATOM     28  C   UNL     1      41.783 114.336  90.247  0.00  0.00    -0.047 A 
ATOM     29  C   UNL     1      42.238 113.163  90.992  0.00  0.00    +0.003 A 
ATOM     30  C   UNL     1      42.596 113.277  92.374  0.00  0.00    +0.000 A 
ATOM     31  C   UNL     1      42.513 114.552  93.064  0.00  0.00    +0.000 A 
ATOM     32  C   UNL     1      42.067 115.715  92.343  0.00  0.00    +0.000 A 
ATOM     33  C   UNL     1      41.703 115.598  90.929  0.00  0.00    +0.003 A 
ENDBRANCH  27  28
ENDBRANCH  26  27
ENDBRANCH  24  26
ENDBRANCH   5  20
TORSDOF 7
ENDMDL
MODEL 3
REMARK VINA RESULT:      -8.3      2.052      2.840
REMARK  Name = LIGAND
REMARK  7 active torsions:
REMARK  status: ('A' for Active; 'I' for Inactive)
REMARK    1  A    between atoms: C_1  and  C_26
REMARK    2  A    between atoms: C_6  and  C_11
REMARK    3  A    between atoms: C_11  and  N_14
REMARK    4  A    between atoms: C_24  and  C_35
REMARK    5  A    between atoms: C_40  and  C_42
REMARK    6  A    between atoms: C_42  and  C_47
REMARK    7  A    between atoms: C_47  and  C_50
REMARK                            x       y       z     vdW  Elec       q    Type
REMARK                         _______ _______ _______ _____ _____    ______ ____
ROOT
ATOM      1  C   UNL     1      42.331 111.209  83.295  0.00  0.00    +0.022 C 
ATOM      2  C   UNL     1      41.226 110.384  82.525  0.00  0.00    +0.027 C 
ATOM      3  C   UNL     1      39.879 110.435  83.269  0.00  0.00    +0.108 C 
ATOM      4  N   UNL     1      39.412 111.835  83.526  0.00  0.00    -0.297 N 
ATOM      5  C   UNL     1      38.246 112.338  82.924  0.00  0.00    +0.248 C 
ATOM      6  O   UNL     1      37.566 111.678  82.149  0.00  0.00    -0.270 OA
ATOM      7  C   UNL     1      40.396 112.551  84.378  0.00  0.00    +0.108 C 
ATOM      8  C   UNL     1      41.767 112.658  83.603  0.00  0.00    +0.027 C 
ENDROOT
BRANCH   1   9
ATOM      9  C   UNL     1      43.685 111.192  82.554  0.00  0.00    -0.044 A 
ATOM     10  C   UNL     1      44.886 110.864  83.311  0.00  0.00    +0.004 A 
ATOM     11  C   UNL     1      46.174 110.838  82.677  0.00  0.00    +0.000 A 
ATOM     12  C   UNL     1      46.312 111.134  81.290  0.00  0.00    +0.002 A 
ATOM     13  C   UNL     1      45.142 111.466  80.505  0.00  0.00    -0.065 A 
ATOM     14  C   UNL     1      43.832 111.494  81.144  0.00  0.00    +0.005 A 
BRANCH  13  15
ATOM     15  C   UNL     1      45.287 111.786  79.040  0.00  0.00    -0.051 C 
BRANCH  15  16
ATOM     16  N   UNL     1      44.205 112.661  78.493  0.00  0.00    +0.381 N 
ATOM     17  H   UNL     1      44.056 113.473  79.073  0.00  0.00    -0.090 HD
ATOM     18  H   UNL     1      43.323 112.169  78.457  0.00  0.00    -0.090 HD
ATOM     19  H   UNL     1      44.411 112.986  77.559  0.00  0.00    -0.090 HD
ENDBRANCH  15  16
ENDBRANCH  13  15
ENDBRANCH   1   9
BRANCH   5  20
ATOM     20  C   UNL     1      37.687 113.708  83.189  0.00  0.00    +0.055 A 
ATOM     21  C   UNL     1      37.618 114.683  82.153  0.00  0.00    +0.123 A 
ATOM     22  N   UNL     1      37.156 115.935  82.322  0.00  0.00    -0.262 NA
ATOM     23  C   UNL     1      36.736 116.315  83.542  0.00  0.00    +0.114 A 
ATOM     24  C   UNL     1      36.740 115.455  84.679  0.00  0.00    -0.028 A 
ATOM     25  C   UNL     1      37.234 114.100  84.494  0.00  0.00    +0.019 A 
BRANCH  24  26
ATOM     26  C   UNL     1      36.276 115.946  86.011  0.00  0.00    +0.041 C 
BRANCH  26  27
ATOM     27  C   UNL     1      35.090 115.161  86.558  0.00  0.00    +0.040 C 
BRANCH  27  28
ATOM     28  C   UNL     1      33.735 115.820  86.481  0.00  0.00    -0.047 A 
ATOM     29  C   UNL     1      32.978 116.075  87.705  0.00  0.00    +0.003 A 
ATOM     30  C   UNL     1      31.695 116.706  87.646  0.00  0.00    +0.000 A 
ATOM     31  C   UNL     1      31.116 117.102  86.374  0.00  0.00    +0.000 A 
ATOM     32  C   UNL     1      31.849 116.857  85.160  0.00  0.00    +0.000 A 
ATOM     33  C   UNL     1      33.163 116.213  85.222  0.00  0.00    +0.003 A 
ENDBRANCH  27  28
ENDBRANCH  26  27
ENDBRANCH  24  26
ENDBRANCH   5  20
TORSDOF 7
ENDMDL
MODEL 4
REMARK VINA RESULT:      -8.2      3.345      4.612
REMARK  Name = LIGAND
REMARK  7 active torsions:
REMARK  status: ('A' for Active; 'I' for Inactive)
REMARK    1  A    between atoms: C_1  and  C_26
REMARK    2  A    between atoms: C_6  and  C_11
REMARK    3  A    between atoms: C_11  and  N_14
REMARK    4  A    between atoms: C_24  and  C_35
REMARK    5  A    between atoms: C_40  and  C_42
REMARK    6  A    between atoms: C_42  and  C_47
REMARK    7  A    between atoms: C_47  and  C_50
REMARK                            x       y       z     vdW  Elec       q    Type
REMARK                         _______ _______ _______ _____ _____    ______ ____
ROOT
ATOM      1  C   UNL     1      43.883 111.614  85.520  0.00  0.00    +0.022 C 
ATOM      2  C   UNL     1      43.316 110.452  86.428  0.00  0.00    +0.027 C 
ATOM      3  C   UNL     1      43.197 110.904  87.895  0.00  0.00    +0.108 C 
ATOM      4  N   UNL     1      42.377 112.148  88.054  0.00  0.00    -0.297 N 
ATOM      5  C   UNL     1      41.152 112.132  88.741  0.00  0.00    +0.248 C 
ATOM      6  O   UNL     1      40.680 111.112  89.226  0.00  0.00    -0.270 OA
ATOM      7  C   UNL     1      43.008 113.270  87.312  0.00  0.00    +0.108 C 
ATOM      8  C   UNL     1      43.027 112.924  85.772  0.00  0.00    +0.027 C 
ENDROOT
BRANCH   1   9
ATOM      9  C   UNL     1      43.987 111.191  84.040  0.00  0.00    -0.044 A 
ATOM     10  C   UNL     1      42.881 110.446  83.451  0.00  0.00    +0.004 A 
ATOM     11  C   UNL     1      42.924 110.020  82.082  0.00  0.00    +0.000 A 
ATOM     12  C   UNL     1      44.051 110.313  81.260  0.00  0.00    +0.002 A 
ATOM     13  C   UNL     1      45.169 111.050  81.809  0.00  0.00    -0.065 A 
ATOM     14  C   UNL     1      45.131 111.484  83.199  0.00  0.00    +0.005 A 
BRANCH  13  15
ATOM     15  C   UNL     1      46.364 111.355  80.943  0.00  0.00    -0.051 C 
BRANCH  15  16
ATOM     16  N   UNL     1      46.078 112.284  79.807  0.00  0.00    +0.381 N 
ATOM     17  H   UNL     1      46.313 113.237  80.040  0.00  0.00    -0.090 HD
ATOM     18  H   UNL     1      45.094 112.280  79.573  0.00  0.00    -0.090 HD
ATOM     19  H   UNL     1      46.591 112.038  78.972  0.00  0.00    -0.090 HD
ENDBRANCH  15  16
ENDBRANCH  13  15
ENDBRANCH   1   9
BRANCH   5  20
ATOM     20  C   UNL     1      40.313 113.354  88.992  0.00  0.00    +0.055 A 
ATOM     21  C   UNL     1      40.681 114.303  89.988  0.00  0.00    +0.123 A 
ATOM     22  N   UNL     1      39.967 115.404  90.285  0.00  0.00    -0.262 NA
ATOM     23  C   UNL     1      38.823 115.637  89.618  0.00  0.00    +0.114 A 
ATOM     24  C   UNL     1      38.321 114.782  88.593  0.00  0.00    -0.028 A 
ATOM     25  C   UNL     1      39.096 113.597  88.268  0.00  0.00    +0.019 A 
BRANCH  24  26
ATOM     26  C   UNL     1      37.032 115.091  87.903  0.00  0.00    +0.041 C 
BRANCH  26  27
ATOM     27  C   UNL     1      36.767 114.192  86.701  0.00  0.00    +0.040 C 
BRANCH  27  28
ATOM     28  C   UNL     1      36.958 114.797  85.333  0.00  0.00    -0.047 A 
ATOM     29  C   UNL     1      36.219 116.001  84.960  0.00  0.00    +0.003 A 
ATOM     30  C   UNL     1      36.398 116.590  83.667  0.00  0.00    +0.000 A 
ATOM     31  C   UNL     1      37.311 116.004  82.700  0.00  0.00    +0.000 A 
ATOM     32  C   UNL     1      38.046 114.819  83.054  0.00  0.00    +0.000 A 
ATOM     33  C   UNL     1      37.863 114.219  84.378  0.00  0.00    +0.003 A 
ENDBRANCH  27  28
ENDBRANCH  26  27
ENDBRANCH  24  26
ENDBRANCH   5  20
TORSDOF 7
ENDMDL
MODEL 5
REMARK VINA RESULT:      -7.6      4.720      6.933
REMARK  Name = LIGAND
REMARK  7 active torsions:
REMARK  status: ('A' for Active; 'I' for Inactive)
REMARK    1  A    between atoms: C_1  and  C_26
REMARK    2  A    between atoms: C_6  and  C_11
REMARK    3  A    between atoms: C_11  and  N_14
REMARK    4  A    between atoms: C_24  and  C_35
REMARK    5  A    between atoms: C_40  and  C_42
REMARK    6  A    between atoms: C_42  and  C_47
REMARK    7  A    between atoms: C_47  and  C_50
REMARK                            x       y       z     vdW  Elec       q    Type
REMARK                         _______ _______ _______ _____ _____    ______ ____
ROOT
ATOM      1  C   UNL     1      42.941 111.038  83.818  0.00  0.00    +0.022 C 
ATOM      2  C   UNL     1      41.671 111.810  83.284  0.00  0.00    +0.027 C 
ATOM      3  C   UNL     1      40.511 111.733  84.293  0.00  0.00    +0.108 C 
ATOM      4  N   UNL     1      40.895 112.224  85.656  0.00  0.00    -0.297 N 
ATOM      5  C   UNL     1      40.310 113.376  86.208  0.00  0.00    +0.248 C 
ATOM      6  O   UNL     1      39.481 114.047  85.609  0.00  0.00    -0.270 OA
ATOM      7  C   UNL     1      41.995 111.389  86.205  0.00  0.00    +0.108 C 
ATOM      8  C   UNL     1      43.268 111.542  85.285  0.00  0.00    +0.027 C 
ENDROOT
BRANCH   1   9
ATOM      9  C   UNL     1      44.125 111.123  82.832  0.00  0.00    -0.044 A 
ATOM     10  C   UNL     1      45.451 110.744  83.305  0.00  0.00    +0.004 A 
ATOM     11  C   UNL     1      46.591 110.808  82.436  0.00  0.00    +0.000 A 
ATOM     12  C   UNL     1      46.457 111.247  81.087  0.00  0.00    +0.002 A 
ATOM     13  C   UNL     1      45.158 111.633  80.580  0.00  0.00    -0.065 A 
ATOM     14  C   UNL     1      43.997 111.570  81.459  0.00  0.00    +0.005 A 
BRANCH  13  15
ATOM     15  C   UNL     1      45.016 112.104  79.156  0.00  0.00    -0.051 C 
BRANCH  15  16
ATOM     16  N   UNL     1      44.833 111.003  78.161  0.00  0.00    +0.381 N 
ATOM     17  H   UNL     1      44.598 110.132  78.612  0.00  0.00    -0.090 HD
ATOM     18  H   UNL     1      45.684 110.836  77.642  0.00  0.00    -0.090 HD
ATOM     19  H   UNL     1      44.103 111.208  77.494  0.00  0.00    -0.090 HD
ENDBRANCH  15  16
ENDBRANCH  13  15
ENDBRANCH   1   9
BRANCH   5  20
ATOM     20  C   UNL     1      40.602 113.885  87.593  0.00  0.00    +0.055 A 
ATOM     21  C   UNL     1      41.347 115.082  87.789  0.00  0.00    +0.123 A 
ATOM     22  N   UNL     1      41.668 115.584  88.997  0.00  0.00    -0.262 NA
ATOM     23  C   UNL     1      41.278 114.922  90.101  0.00  0.00    +0.114 A 
ATOM     24  C   UNL     1      40.525 113.712  90.069  0.00  0.00    -0.028 A 
ATOM     25  C   UNL     1      40.174 113.174  88.765  0.00  0.00    +0.019 A 
BRANCH  24  26
ATOM     26  C   UNL     1      40.139 113.018  91.334  0.00  0.00    +0.041 C 
BRANCH  26  27
ATOM     27  C   UNL     1      39.744 111.562  91.121  0.00  0.00    +0.040 C 
BRANCH  27  28
ATOM     28  C   UNL     1      38.455 111.099  91.753  0.00  0.00    -0.047 A 
ATOM     29  C   UNL     1      37.378 110.577  90.912  0.00  0.00    +0.003 A 
ATOM     30  C   UNL     1      36.153 110.127  91.501  0.00  0.00    +0.000 A 
ATOM     31  C   UNL     1      35.951 110.182  92.938  0.00  0.00    +0.000 A 
ATOM     32  C   UNL     1      37.003 110.692  93.778  0.00  0.00    +0.000 A 
ATOM     33  C   UNL     1      38.257 111.151  93.175  0.00  0.00    +0.003 A 
ENDBRANCH  27  28
ENDBRANCH  26  27
ENDBRANCH  24  26
ENDBRANCH   5  20
TORSDOF 7
ENDMDL
MODEL 6
REMARK VINA RESULT:      -7.6      3.985      9.314
REMARK  Name = LIGAND
REMARK  7 active torsions:
REMARK  status: ('A' for Active; 'I' for Inactive)
REMARK    1  A    between atoms: C_1  and  C_26
REMARK    2  A    between atoms: C_6  and  C_11
REMARK    3  A    between atoms: C_11  and  N_14
REMARK    4  A    between atoms: C_24  and  C_35
REMARK    5  A    between atoms: C_40  and  C_42
REMARK    6  A    between atoms: C_42  and  C_47
REMARK    7  A    between atoms: C_47  and  C_50
REMARK                            x       y       z     vdW  Elec       q    Type
REMARK                         _______ _______ _______ _____ _____    ______ ____
ROOT
ATOM      1  C   UNL     1      35.764 114.827  85.839  0.00  0.00    +0.022 C 
ATOM      2  C   UNL     1      35.433 116.014  86.827  0.00  0.00    +0.027 C 
ATOM      3  C   UNL     1      35.677 115.601  88.290  0.00  0.00    +0.108 C 
ATOM      4  N   UNL     1      37.066 115.090  88.524  0.00  0.00    -0.297 N 
ATOM      5  C   UNL     1      37.967 115.779  89.352  0.00  0.00    +0.248 C 
ATOM      6  O   UNL     1      37.682 116.832  89.906  0.00  0.00    -0.270 OA
ATOM      7  C   UNL     1      37.308 113.882  87.694  0.00  0.00    +0.108 C 
ATOM      8  C   UNL     1      37.214 114.276  86.169  0.00  0.00    +0.027 C 
ENDROOT
BRANCH   1   9
ATOM      9  C   UNL     1      35.550 115.227  84.364  0.00  0.00    -0.044 A 
ATOM     10  C   UNL     1      36.461 116.197  83.769  0.00  0.00    +0.004 A 
ATOM     11  C   UNL     1      36.309 116.612  82.404  0.00  0.00    +0.000 A 
ATOM     12  C   UNL     1      35.260 116.088  81.594  0.00  0.00    +0.002 A 
ATOM     13  C   UNL     1      34.335 115.123  82.149  0.00  0.00    -0.065 A 
ATOM     14  C   UNL     1      34.485 114.699  83.535  0.00  0.00    +0.005 A 
BRANCH  13  15
ATOM     15  C   UNL     1      33.221 114.574  81.296  0.00  0.00    -0.051 C 
BRANCH  15  16
ATOM     16  N   UNL     1      33.304 114.961  79.854  0.00  0.00    +0.381 N 
ATOM     17  H   UNL     1      33.470 114.159  79.264  0.00  0.00    -0.090 HD
ATOM     18  H   UNL     1      34.072 115.599  79.693  0.00  0.00    -0.090 HD
ATOM     19  H   UNL     1      32.460 115.410  79.529  0.00  0.00    -0.090 HD
ENDBRANCH  15  16
ENDBRANCH  13  15
ENDBRANCH   1   9
BRANCH   5  20
ATOM     20  C   UNL     1      39.350 115.289  89.681  0.00  0.00    +0.055 A 
ATOM     21  C   UNL     1      39.755 115.090  91.031  0.00  0.00    +0.123 A 
ATOM     22  N   UNL     1      40.982 114.679  91.401  0.00  0.00    -0.262 NA
ATOM     23  C   UNL     1      41.904 114.445  90.450  0.00  0.00    +0.114 A 
ATOM     24  C   UNL     1      41.652 114.596  89.055  0.00  0.00    -0.028 A 
ATOM     25  C   UNL     1      40.325 115.034  88.656  0.00  0.00    +0.019 A 
BRANCH  24  26
ATOM     26  C   UNL     1      42.727 114.336  88.051  0.00  0.00    +0.041 C 
BRANCH  26  27
ATOM     27  C   UNL     1      42.847 112.865  87.671  0.00  0.00    +0.040 C 
BRANCH  27  28
ATOM     28  C   UNL     1      42.784 112.527  86.202  0.00  0.00    -0.047 A 
ATOM     29  C   UNL     1      41.608 112.900  85.418  0.00  0.00    +0.003 A 
ATOM     30  C   UNL     1      41.541 112.592  84.022  0.00  0.00    +0.000 A 
ATOM     31  C   UNL     1      42.632 111.902  83.356  0.00  0.00    +0.000 A 
ATOM     32  C   UNL     1      43.797 111.529  84.115  0.00  0.00    +0.000 A 
ATOM     33  C   UNL     1      43.865 111.847  85.543  0.00  0.00    +0.003 A 
ENDBRANCH  27  28
ENDBRANCH  26  27
ENDBRANCH  24  26
ENDBRANCH   5  20
TORSDOF 7
ENDMDL
MODEL 7
REMARK VINA RESULT:      -7.5      1.905      2.701
REMARK  Name = LIGAND
REMARK  7 active torsions:
REMARK  status: ('A' for Active; 'I' for Inactive)
REMARK    1  A    between atoms: C_1  and  C_26
REMARK    2  A    between atoms: C_6  and  C_11
REMARK    3  A    between atoms: C_11  and  N_14
REMARK    4  A    between atoms: C_24  and  C_35
REMARK    5  A    between atoms: C_40  and  C_42
REMARK    6  A    between atoms: C_42  and  C_47
REMARK    7  A    between atoms: C_47  and  C_50
REMARK                            x       y       z     vdW  Elec       q    Type
REMARK                         _______ _______ _______ _____ _____    ______ ____
ROOT
ATOM      1  C   UNL     1      40.928 111.050  83.356  0.00  0.00    +0.022 C 
ATOM      2  C   UNL     1      39.999 110.519  82.195  0.00  0.00    +0.027 C 
ATOM      3  C   UNL     1      38.512 110.641  82.577  0.00  0.00    +0.108 C 
ATOM      4  N   UNL     1      38.127 112.035  82.968  0.00  0.00    -0.297 N 
ATOM      5  C   UNL     1      37.219 112.785  82.201  0.00  0.00    +0.248 C 
ATOM      6  O   UNL     1      36.714 112.356  81.172  0.00  0.00    -0.270 OA
ATOM      7  C   UNL     1      38.909 112.464  84.157  0.00  0.00    +0.108 C 
ATOM      8  C   UNL     1      40.441 112.498  83.781  0.00  0.00    +0.027 C 
ENDROOT
BRANCH   1   9
ATOM      9  C   UNL     1      42.424 110.960  82.985  0.00  0.00    -0.044 A 
ATOM     10  C   UNL     1      43.372 110.562  84.017  0.00  0.00    +0.004 A 
ATOM     11  C   UNL     1      44.776 110.466  83.733  0.00  0.00    +0.000 A 
ATOM     12  C   UNL     1      45.279 110.761  82.433  0.00  0.00    +0.002 A 
ATOM     13  C   UNL     1      44.369 111.161  81.381  0.00  0.00    -0.065 A 
ATOM     14  C   UNL     1      42.943 111.260  81.665  0.00  0.00    +0.005 A 
BRANCH  13  15
ATOM     15  C   UNL     1      44.901 111.479  80.008  0.00  0.00    -0.051 C 
BRANCH  15  16
ATOM     16  N   UNL     1      46.385 111.650  79.949  0.00  0.00    +0.381 N 
ATOM     17  H   UNL     1      46.646 112.625  79.975  0.00  0.00    -0.090 HD
ATOM     18  H   UNL     1      46.761 111.275  79.089  0.00  0.00    -0.090 HD
ATOM     19  H   UNL     1      46.855 111.188  80.715  0.00  0.00    -0.090 HD
ENDBRANCH  15  16
ENDBRANCH  13  15
ENDBRANCH   1   9
BRANCH   5  20
ATOM     20  C   UNL     1      36.741 114.161  82.571  0.00  0.00    +0.055 A 
ATOM     21  C   UNL     1      37.317 115.320  81.976  0.00  0.00    +0.123 A 
ATOM     22  N   UNL     1      36.959 116.582  82.277  0.00  0.00    -0.262 NA
ATOM     23  C   UNL     1      36.005 116.785  83.203  0.00  0.00    +0.114 A 
ATOM     24  C   UNL     1      35.333 115.728  83.885  0.00  0.00    -0.028 A 
ATOM     25  C   UNL     1      35.716 114.366  83.556  0.00  0.00    +0.019 A 
BRANCH  24  26
ATOM     26  C   UNL     1      34.294 116.024  84.917  0.00  0.00    +0.041 C 
BRANCH  26  27
ATOM     27  C   UNL     1      32.966 116.469  84.318  0.00  0.00    +0.040 C 
BRANCH  27  28
ATOM     28  C   UNL     1      31.881 115.427  84.199  0.00  0.00    -0.047 A 
ATOM     29  C   UNL     1      31.867 114.519  83.054  0.00  0.00    +0.003 A 
ATOM     30  C   UNL     1      30.847 113.521  82.934  0.00  0.00    +0.000 A 
ATOM     31  C   UNL     1      29.807 113.391  83.940  0.00  0.00    +0.000 A 
ATOM     32  C   UNL     1      29.809 114.279  85.073  0.00  0.00    +0.000 A 
ATOM     33  C   UNL     1      30.854 115.299  85.195  0.00  0.00    +0.003 A 
ENDBRANCH  27  28
ENDBRANCH  26  27
ENDBRANCH  24  26
ENDBRANCH   5  20
TORSDOF 7
ENDMDL
MODEL 8
REMARK VINA RESULT:      -7.5      4.215      5.220
REMARK  Name = LIGAND
REMARK  7 active torsions:
REMARK  status: ('A' for Active; 'I' for Inactive)
REMARK    1  A    between atoms: C_1  and  C_26
REMARK    2  A    between atoms: C_6  and  C_11
REMARK    3  A    between atoms: C_11  and  N_14
REMARK    4  A    between atoms: C_24  and  C_35
REMARK    5  A    between atoms: C_40  and  C_42
REMARK    6  A    between atoms: C_42  and  C_47
REMARK    7  A    between atoms: C_47  and  C_50
REMARK                            x       y       z     vdW  Elec       q    Type
REMARK                         _______ _______ _______ _____ _____    ______ ____
ROOT
ATOM      1  C   UNL     1      43.764 111.692  85.658  0.00  0.00    +0.022 C 
ATOM      2  C   UNL     1      43.262 110.513  86.583  0.00  0.00    +0.027 C 
ATOM      3  C   UNL     1      43.092 110.986  88.038  0.00  0.00    +0.108 C 
ATOM      4  N   UNL     1      42.189 112.175  88.159  0.00  0.00    -0.297 N 
ATOM      5  C   UNL     1      40.957 112.091  88.831  0.00  0.00    +0.248 C 
ATOM      6  O   UNL     1      40.548 111.052  89.330  0.00  0.00    -0.270 OA
ATOM      7  C   UNL     1      42.754 113.322  87.402  0.00  0.00    +0.108 C 
ATOM      8  C   UNL     1      42.819 112.947  85.870  0.00  0.00    +0.027 C 
ENDROOT
BRANCH   1   9
ATOM      9  C   UNL     1      43.918 111.246  84.188  0.00  0.00    -0.044 A 
ATOM     10  C   UNL     1      42.898 110.376  83.617  0.00  0.00    +0.004 A 
ATOM     11  C   UNL     1      42.991 109.923  82.258  0.00  0.00    +0.000 A 
ATOM     12  C   UNL     1      44.084 110.313  81.431  0.00  0.00    +0.002 A 
ATOM     13  C   UNL     1      45.117 111.176  81.963  0.00  0.00    -0.065 A 
ATOM     14  C   UNL     1      45.028 111.637  83.343  0.00  0.00    +0.005 A 
BRANCH  13  15
ATOM     15  C   UNL     1      46.278 111.583  81.092  0.00  0.00    -0.051 C 
BRANCH  15  16
ATOM     16  N   UNL     1      46.040 111.399  79.628  0.00  0.00    +0.381 N 
ATOM     17  H   UNL     1      46.099 110.428  79.362  0.00  0.00    -0.090 HD
ATOM     18  H   UNL     1      46.736 111.889  79.082  0.00  0.00    -0.090 HD
ATOM     19  H   UNL     1      45.133 111.740  79.341  0.00  0.00    -0.090 HD
ENDBRANCH  15  16
ENDBRANCH  13  15
ENDBRANCH   1   9
BRANCH   5  20
ATOM     20  C   UNL     1      40.035 113.259  89.044  0.00  0.00    +0.055 A 
ATOM     21  C   UNL     1      40.425 114.360  89.859  0.00  0.00    +0.123 A 
ATOM     22  N   UNL     1      39.643 115.425  90.115  0.00  0.00    -0.262 NA
ATOM     23  C   UNL     1      38.408 115.469  89.586  0.00  0.00    +0.114 A 
ATOM     24  C   UNL     1      37.873 114.446  88.749  0.00  0.00    -0.028 A 
ATOM     25  C   UNL     1      38.720 113.298  88.468  0.00  0.00    +0.019 A 
BRANCH  24  26
ATOM     26  C   UNL     1      36.484 114.548  88.208  0.00  0.00    +0.041 C 
BRANCH  26  27
ATOM     27  C   UNL     1      35.787 115.847  88.594  0.00  0.00    +0.040 C 
BRANCH  27  28
ATOM     28  C   UNL     1      34.291 115.906  88.411  0.00  0.00    -0.047 A 
ATOM     29  C   UNL     1      33.731 116.344  87.134  0.00  0.00    +0.003 A 
ATOM     30  C   UNL     1      32.312 116.397  86.945  0.00  0.00    +0.000 A 
ATOM     31  C   UNL     1      31.403 116.022  88.014  0.00  0.00    +0.000 A 
ATOM     32  C   UNL     1      31.941 115.588  89.276  0.00  0.00    +0.000 A 
ATOM     33  C   UNL     1      33.392 115.533  89.468  0.00  0.00    +0.003 A 
ENDBRANCH  27  28
ENDBRANCH  26  27
ENDBRANCH  24  26
ENDBRANCH   5  20
TORSDOF 7
ENDMDL
MODEL 9
REMARK VINA RESULT:      -7.5      2.592      3.534
REMARK  Name = LIGAND
REMARK  7 active torsions:
REMARK  status: ('A' for Active; 'I' for Inactive)
REMARK    1  A    between atoms: C_1  and  C_26
REMARK    2  A    between atoms: C_6  and  C_11
REMARK    3  A    between atoms: C_11  and  N_14
REMARK    4  A    between atoms: C_24  and  C_35
REMARK    5  A    between atoms: C_40  and  C_42
REMARK    6  A    between atoms: C_42  and  C_47
REMARK    7  A    between atoms: C_47  and  C_50
REMARK                            x       y       z     vdW  Elec       q    Type
REMARK                         _______ _______ _______ _____ _____    ______ ____
ROOT
ATOM      1  C   UNL     1      42.618 112.293  85.646  0.00  0.00    +0.022 C 
ATOM      2  C   UNL     1      41.858 111.106  86.358  0.00  0.00    +0.027 C 
ATOM      3  C   UNL     1      41.332 111.535  87.740  0.00  0.00    +0.108 C 
ATOM      4  N   UNL     1      40.466 112.755  87.677  0.00  0.00    -0.297 N 
ATOM      5  C   UNL     1      39.101 112.699  88.005  0.00  0.00    +0.248 C 
ATOM      6  O   UNL     1      38.544 111.662  88.337  0.00  0.00    -0.270 OA
ATOM      7  C   UNL     1      41.243 113.903  87.141  0.00  0.00    +0.108 C 
ATOM      8  C   UNL     1      41.690 113.578  85.663  0.00  0.00    +0.027 C 
ENDROOT
BRANCH   1   9
ATOM      9  C   UNL     1      43.132 111.893  84.247  0.00  0.00    -0.044 A 
ATOM     10  C   UNL     1      42.168 111.772  83.161  0.00  0.00    +0.004 A 
ATOM     11  C   UNL     1      42.585 111.397  81.840  0.00  0.00    +0.000 A 
ATOM     12  C   UNL     1      43.956 111.130  81.556  0.00  0.00    +0.002 A 
ATOM     13  C   UNL     1      44.944 111.238  82.608  0.00  0.00    -0.065 A 
ATOM     14  C   UNL     1      44.524 111.618  83.951  0.00  0.00    +0.005 A 
BRANCH  13  15
ATOM     15  C   UNL     1      46.393 110.949  82.311  0.00  0.00    -0.051 C 
BRANCH  15  16
ATOM     16  N   UNL     1      46.809 111.278  80.913  0.00  0.00    +0.381 N 
ATOM     17  H   UNL     1      46.402 110.640  80.246  0.00  0.00    -0.090 HD
ATOM     18  H   UNL     1      47.812 111.203  80.806  0.00  0.00    -0.090 HD
ATOM     19  H   UNL     1      46.542 112.214  80.644  0.00  0.00    -0.090 HD
ENDBRANCH  15  16
ENDBRANCH  13  15
ENDBRANCH   1   9
BRANCH   5  20
ATOM     20  C   UNL     1      38.191 113.896  88.026  0.00  0.00    +0.055 A 
ATOM     21  C   UNL     1      38.139 114.756  89.159  0.00  0.00    +0.123 A 
ATOM     22  N   UNL     1      37.332 115.828  89.259  0.00  0.00    -0.262 NA
ATOM     23  C   UNL     1      36.507 116.119  88.237  0.00  0.00    +0.114 A 
ATOM     24  C   UNL     1      36.444 115.356  87.035  0.00  0.00    -0.028 A 
ATOM     25  C   UNL     1      37.320 114.202  86.925  0.00  0.00    +0.019 A 
BRANCH  24  26
ATOM     26  C   UNL     1      35.491 115.725  85.945  0.00  0.00    +0.041 C 
BRANCH  26  27
ATOM     27  C   UNL     1      36.187 116.079  84.636  0.00  0.00    +0.040 C 
BRANCH  27  28
ATOM     28  C   UNL     1      35.501 115.666  83.358  0.00  0.00    -0.047 A 
ATOM     29  C   UNL     1      35.299 116.645  82.291  0.00  0.00    +0.003 A 
ATOM     30  C   UNL     1      34.657 116.263  81.070  0.00  0.00    +0.000 A 
ATOM     31  C   UNL     1      34.190 114.903  80.865  0.00  0.00    +0.000 A 
ATOM     32  C   UNL     1      34.382 113.929  81.907  0.00  0.00    +0.000 A 
ATOM     33  C   UNL     1      35.041 114.320  83.155  0.00  0.00    +0.003 A 
ENDBRANCH  27  28
ENDBRANCH  26  27
ENDBRANCH  24  26
ENDBRANCH   5  20
TORSDOF 7
ENDMDL
