MODEL 1
REMARK VINA RESULT:      -9.0      0.000      0.000
REMARK  Name = LIGAND
REMARK  7 active torsions:
REMARK  status: ('A' for Active; 'I' for Inactive)
REMARK    1  A    between atoms: C_1  and  C_26
REMARK    2  A    between atoms: C_6  and  C_11
REMARK    3  A    between atoms: C_11  and  N_14
REMARK    4  A    between atoms: C_24  and  C_35
REMARK    5  A    between atoms: C_40  and  C_42
REMARK    6  A    between atoms: C_42  and  C_47
REMARK    7  A    between atoms: C_47  and  C_50
REMARK                            x       y       z     vdW  Elec       q    Type
REMARK                         _______ _______ _______ _____ _____    ______ ____
ROOT
ATOM      1  C   UNL     1      42.407 110.649  82.785  0.00  0.00    +0.022 C 
ATOM      2  C   UNL     1      41.372 110.234  81.666  0.00  0.00    +0.027 C 
ATOM      3  C   UNL     1      39.969 110.018  82.263  0.00  0.00    +0.108 C 
ATOM      4  N   UNL     1      39.475 111.208  83.027  0.00  0.00    -0.297 N 
ATOM      5  C   UNL     1      38.358 111.942  82.592  0.00  0.00    +0.248 C 
ATOM      6  O   UNL     1      37.747 111.668  81.568  0.00  0.00    -0.270 OA
ATOM      7  C   UNL     1      40.383 111.493  84.167  0.00  0.00    +0.108 C 
ATOM      8  C   UNL     1      41.811 111.866  83.608  0.00  0.00    +0.027 C 
ENDROOT
BRANCH   1   9
ATOM      9  C   UNL     1      43.816 110.896  82.205  0.00  0.00    -0.044 A 
ATOM     10  C   UNL     1      44.972 110.624  83.050  0.00  0.00    +0.004 A 
ATOM     11  C   UNL     1      46.306 110.840  82.568  0.00  0.00    +0.000 A 
ATOM     12  C   UNL     1      46.536 111.328  81.248  0.00  0.00    +0.002 A 
ATOM     13  C   UNL     1      45.414 111.611  80.379  0.00  0.00    -0.065 A 
ATOM     14  C   UNL     1      44.057 111.394  80.865  0.00  0.00    +0.005 A 
BRANCH  13  15
ATOM     15  C   UNL     1      45.655 112.133  78.987  0.00  0.00    -0.051 C 
BRANCH  15  16
ATOM     16  N   UNL     1      44.886 111.421  77.922  0.00  0.00    +0.381 N 
ATOM     17  H   UNL     1      43.945 111.777  77.843  0.00  0.00    -0.090 HD
ATOM     18  H   UNL     1      44.802 110.435  78.132  0.00  0.00    -0.090 HD
ATOM     19  H   UNL     1      45.321 111.504  77.014  0.00  0.00    -0.090 HD
ENDBRANCH  15  16
ENDBRANCH  13  15
ENDBRANCH   1   9
BRANCH   5  20
ATOM     20  C   UNL     1      37.771 113.104  83.344  0.00  0.00    +0.055 A 
ATOM     21  C   UNL     1      37.352 112.964  84.697  0.00  0.00    +0.123 A 
ATOM     22  N   UNL     1      36.796 113.951  85.423  0.00  0.00    -0.262 NA
ATOM     23  C   UNL     1      36.605 115.152  84.850  0.00  0.00    +0.114 A 
ATOM     24  C   UNL     1      36.973 115.450  83.505  0.00  0.00    -0.028 A 
ATOM     25  C   UNL     1      37.579 114.386  82.723  0.00  0.00    +0.019 A 
BRANCH  24  26
ATOM     26  C   UNL     1      36.716 116.803  82.924  0.00  0.00    +0.041 C 
BRANCH  26  27
ATOM     27  C   UNL     1      35.234 117.138  82.822  0.00  0.00    +0.040 C 
BRANCH  27  28
ATOM     28  C   UNL     1      34.343 116.122  82.151  0.00  0.00    -0.047 A 
ATOM     29  C   UNL     1      33.383 115.358  82.945  0.00  0.00    +0.003 A 
ATOM     30  C   UNL     1      32.527 114.397  82.317  0.00  0.00    +0.000 A 
ATOM     31  C   UNL     1      32.594 114.158  80.886  0.00  0.00    +0.000 A 
ATOM     32  C   UNL     1      33.535 114.904  80.092  0.00  0.00    +0.000 A 
ATOM     33  C   UNL     1      34.409 115.888  80.734  0.00  0.00    +0.003 A 
ENDBRANCH  27  28
ENDBRANCH  26  27
ENDBRANCH  24  26
ENDBRANCH   5  20
TORSDOF 7
ENDMDL
MODEL 2
REMARK VINA RESULT:      -8.5      3.413      5.629
REMARK  Name = LIGAND
REMARK  7 active torsions:
REMARK  status: ('A' for Active; 'I' for Inactive)
REMARK    1  A    between atoms: C_1  and  C_26
REMARK    2  A    between atoms: C_6  and  C_11
REMARK    3  A    between atoms: C_11  and  N_14
REMARK    4  A    between atoms: C_24  and  C_35
REMARK    5  A    between atoms: C_40  and  C_42
REMARK    6  A    between atoms: C_42  and  C_47
REMARK    7  A    between atoms: C_47  and  C_50
REMARK                            x       y       z     vdW  Elec       q    Type
REMARK                         _______ _______ _______ _____ _____    ______ ____
ROOT
ATOM      1  C   UNL     1      42.505 110.452  83.008  0.00  0.00    +0.022 C 
ATOM      2  C   UNL     1      41.343 110.365  81.941  0.00  0.00    +0.027 C 
ATOM      3  C   UNL     1      39.990 110.079  82.619  0.00  0.00    +0.108 C 
ATOM      4  N   UNL     1      39.656 111.076  83.687  0.00  0.00    -0.297 N 
ATOM      5  C   UNL     1      38.559 111.944  83.557  0.00  0.00    +0.248 C 
ATOM      6  O   UNL     1      37.836 111.952  82.569  0.00  0.00    -0.270 OA
ATOM      7  C   UNL     1      40.685 111.038  84.757  0.00  0.00    +0.108 C 
ATOM      8  C   UNL     1      42.077 111.465  84.149  0.00  0.00    +0.027 C 
ENDROOT
BRANCH   1   9
ATOM      9  C   UNL     1      43.867 110.762  82.352  0.00  0.00    -0.044 A 
ATOM     10  C   UNL     1      45.080 110.522  83.124  0.00  0.00    +0.004 A 
ATOM     11  C   UNL     1      46.375 110.797  82.570  0.00  0.00    +0.000 A 
ATOM     12  C   UNL     1      46.509 111.315  81.249  0.00  0.00    +0.002 A 
ATOM     13  C   UNL     1      45.328 111.567  80.451  0.00  0.00    -0.065 A 
ATOM     14  C   UNL     1      44.011 111.290  81.010  0.00  0.00    +0.005 A 
BRANCH  13  15
ATOM     15  C   UNL     1      45.469 112.121  79.057  0.00  0.00    -0.051 C 
BRANCH  15  16
ATOM     16  N   UNL     1      44.868 111.261  77.992  0.00  0.00    +0.381 N 
ATOM     17  H   UNL     1      44.200 111.773  77.435  0.00  0.00    -0.090 HD
ATOM     18  H   UNL     1      44.367 110.480  78.394  0.00  0.00    -0.090 HD
ATOM     19  H   UNL     1      45.565 110.886  77.364  0.00  0.00    -0.090 HD
ENDBRANCH  15  16
ENDBRANCH  13  15
ENDBRANCH   1   9
BRANCH   5  20
ATOM     20  C   UNL     1      38.130 112.921  84.616  0.00  0.00    +0.055 A 
ATOM     21  C   UNL     1      37.606 114.197  84.265  0.00  0.00    +0.123 A 
ATOM     22  N   UNL     1      37.227 115.131  85.158  0.00  0.00    -0.262 NA
ATOM     23  C   UNL     1      37.351 114.865  86.470  0.00  0.00    +0.114 A 
ATOM     24  C   UNL     1      37.857 113.634  86.979  0.00  0.00    -0.028 A 
ATOM     25  C   UNL     1      38.261 112.624  86.016  0.00  0.00    +0.019 A 
BRANCH  24  26
ATOM     26  C   UNL     1      37.986 113.410  88.451  0.00  0.00    +0.041 C 
BRANCH  26  27
ATOM     27  C   UNL     1      38.052 114.707  89.249  0.00  0.00    +0.040 C 
BRANCH  27  28
ATOM     28  C   UNL     1      39.396 115.105  89.806  0.00  0.00    -0.047 A 
ATOM     29  C   UNL     1      39.512 115.518  91.203  0.00  0.00    +0.003 A 
ATOM     30  C   UNL     1      40.784 115.891  91.745  0.00  0.00    +0.000 A 
ATOM     31  C   UNL     1      41.981 115.870  90.923  0.00  0.00    +0.000 A 
ATOM     32  C   UNL     1      41.882 115.464  89.546  0.00  0.00    +0.000 A 
ATOM     33  C   UNL     1      40.581 115.082  88.992  0.00  0.00    +0.003 A 
ENDBRANCH  27  28
ENDBRANCH  26  27
ENDBRANCH  24  26
ENDBRANCH   5  20
TORSDOF 7
ENDMDL
MODEL 3
REMARK VINA RESULT:      -8.4      4.465      6.825
REMARK  Name = LIGAND
REMARK  7 active torsions:
REMARK  status: ('A' for Active; 'I' for Inactive)
REMARK    1  A    between atoms: C_1  and  C_26
REMARK    2  A    between atoms: C_6  and  C_11
REMARK    3  A    between atoms: C_11  and  N_14
REMARK    4  A    between atoms: C_24  and  C_35
REMARK    5  A    between atoms: C_40  and  C_42
REMARK    6  A    between atoms: C_42  and  C_47
REMARK    7  A    between atoms: C_47  and  C_50
REMARK                            x       y       z     vdW  Elec       q    Type
REMARK                         _______ _______ _______ _____ _____    ______ ____
ROOT
ATOM      1  C   UNL     1      42.318 110.487  83.515  0.00  0.00    +0.022 C 
ATOM      2  C   UNL     1      41.004 110.886  82.735  0.00  0.00    +0.027 C 
ATOM      3  C   UNL     1      39.747 110.528  83.550  0.00  0.00    +0.108 C 
ATOM      4  N   UNL     1      39.753 111.134  84.920  0.00  0.00    -0.297 N 
ATOM      5  C   UNL     1      38.807 112.103  85.294  0.00  0.00    +0.248 C 
ATOM      6  O   UNL     1      37.949 112.518  84.527  0.00  0.00    -0.270 OA
ATOM      7  C   UNL     1      40.919 110.631  85.692  0.00  0.00    +0.108 C 
ATOM      8  C   UNL     1      42.248 111.093  84.978  0.00  0.00    +0.027 C 
ENDROOT
BRANCH   1   9
ATOM      9  C   UNL     1      43.592 110.859  82.727  0.00  0.00    -0.044 A 
ATOM     10  C   UNL     1      44.867 110.870  83.433  0.00  0.00    +0.004 A 
ATOM     11  C   UNL     1      46.084 111.213  82.754  0.00  0.00    +0.000 A 
ATOM     12  C   UNL     1      46.077 111.556  81.371  0.00  0.00    +0.002 A 
ATOM     13  C   UNL     1      44.831 111.558  80.636  0.00  0.00    -0.065 A 
ATOM     14  C   UNL     1      43.592 111.211  81.321  0.00  0.00    +0.005 A 
BRANCH  13  15
ATOM     15  C   UNL     1      44.822 111.927  79.175  0.00  0.00    -0.051 C 
BRANCH  15  16
ATOM     16  N   UNL     1      46.181 112.090  78.574  0.00  0.00    +0.381 N 
ATOM     17  H   UNL     1      46.673 112.873  78.978  0.00  0.00    -0.090 HD
ATOM     18  H   UNL     1      46.120 112.271  77.581  0.00  0.00    -0.090 HD
ATOM     19  H   UNL     1      46.756 111.269  78.701  0.00  0.00    -0.090 HD
ENDBRANCH  15  16
ENDBRANCH  13  15
ENDBRANCH   1   9
BRANCH   5  20
ATOM     20  C   UNL     1      38.717 112.703  86.670  0.00  0.00    +0.055 A 
ATOM     21  C   UNL     1      37.836 112.161  87.648  0.00  0.00    +0.123 A 
ATOM     22  N   UNL     1      37.683 112.660  88.889  0.00  0.00    -0.262 NA
ATOM     23  C   UNL     1      38.392 113.745  89.245  0.00  0.00    +0.114 A 
ATOM     24  C   UNL     1      39.317 114.401  88.380  0.00  0.00    -0.028 A 
ATOM     25  C   UNL     1      39.485 113.858  87.043  0.00  0.00    +0.019 A 
BRANCH  24  26
ATOM     26  C   UNL     1      40.060 115.615  88.834  0.00  0.00    +0.041 C 
BRANCH  26  27
ATOM     27  C   UNL     1      41.541 115.353  89.078  0.00  0.00    +0.040 C 
BRANCH  27  28
ATOM     28  C   UNL     1      41.922 114.726  90.396  0.00  0.00    -0.047 A 
ATOM     29  C   UNL     1      42.000 115.553  91.599  0.00  0.00    +0.003 A 
ATOM     30  C   UNL     1      42.352 114.969  92.858  0.00  0.00    +0.000 A 
ATOM     31  C   UNL     1      42.642 113.550  92.967  0.00  0.00    +0.000 A 
ATOM     32  C   UNL     1      42.569 112.723  91.791  0.00  0.00    +0.000 A 
ATOM     33  C   UNL     1      42.206 113.322  90.504  0.00  0.00    +0.003 A 
ENDBRANCH  27  28
ENDBRANCH  26  27
ENDBRANCH  24  26
ENDBRANCH   5  20
TORSDOF 7
ENDMDL
MODEL 4
REMARK VINA RESULT:      -8.4      2.152      2.932
REMARK  Name = LIGAND
REMARK  7 active torsions:
REMARK  status: ('A' for Active; 'I' for Inactive)
REMARK    1  A    between atoms: C_1  and  C_26
REMARK    2  A    between atoms: C_6  and  C_11
REMARK    3  A    between atoms: C_11  and  N_14
REMARK    4  A    between atoms: C_24  and  C_35
REMARK    5  A    between atoms: C_40  and  C_42
REMARK    6  A    between atoms: C_42  and  C_47
REMARK    7  A    between atoms: C_47  and  C_50
REMARK                            x       y       z     vdW  Elec       q    Type
REMARK                         _______ _______ _______ _____ _____    ______ ____
ROOT
ATOM      1  C   UNL     1      41.966 111.175  83.078  0.00  0.00    +0.022 C 
ATOM      2  C   UNL     1      40.892 110.529  82.116  0.00  0.00    +0.027 C 
ATOM      3  C   UNL     1      39.488 110.570  82.747  0.00  0.00    +0.108 C 
ATOM      4  N   UNL     1      39.074 111.953  83.150  0.00  0.00    -0.297 N 
ATOM      5  C   UNL     1      37.996 112.603  82.527  0.00  0.00    +0.248 C 
ATOM      6  O   UNL     1      37.354 112.094  81.618  0.00  0.00    -0.270 OA
ATOM      7  C   UNL     1      40.015 112.488  84.168  0.00  0.00    +0.108 C 
ATOM      8  C   UNL     1      41.453 112.606  83.530  0.00  0.00    +0.027 C 
ENDROOT
BRANCH   1   9
ATOM      9  C   UNL     1      43.377 111.167  82.454  0.00  0.00    -0.044 A 
ATOM     10  C   UNL     1      44.521 110.936  83.328  0.00  0.00    +0.004 A 
ATOM     11  C   UNL     1      45.858 110.923  82.807  0.00  0.00    +0.000 A 
ATOM     12  C   UNL     1      46.103 111.138  81.419  0.00  0.00    +0.002 A 
ATOM     13  C   UNL     1      44.994 111.372  80.520  0.00  0.00    -0.065 A 
ATOM     14  C   UNL     1      43.634 111.387  81.045  0.00  0.00    +0.005 A 
BRANCH  13  15
ATOM     15  C   UNL     1      45.252 111.606  79.054  0.00  0.00    -0.051 C 
BRANCH  15  16
ATOM     16  N   UNL     1      44.410 112.681  78.446  0.00  0.00    +0.381 N 
ATOM     17  H   UNL     1      44.488 112.689  77.440  0.00  0.00    -0.090 HD
ATOM     18  H   UNL     1      44.702 113.596  78.763  0.00  0.00    -0.090 HD
ATOM     19  H   UNL     1      43.432 112.577  78.675  0.00  0.00    -0.090 HD
ENDBRANCH  15  16
ENDBRANCH  13  15
ENDBRANCH   1   9
BRANCH   5  20
ATOM     20  C   UNL     1      37.488 113.961  82.927  0.00  0.00    +0.055 A 
ATOM     21  C   UNL     1      37.426 115.025  81.983  0.00  0.00    +0.123 A 
ATOM     22  N   UNL     1      37.008 116.271  82.274  0.00  0.00    -0.262 NA
ATOM     23  C   UNL     1      36.631 116.553  83.534  0.00  0.00    +0.114 A 
ATOM     24  C   UNL     1      36.636 115.596  84.590  0.00  0.00    -0.028 A 
ATOM     25  C   UNL     1      37.081 114.249  84.274  0.00  0.00    +0.019 A 
BRANCH  24  26
ATOM     26  C   UNL     1      36.221 115.981  85.973  0.00  0.00    +0.041 C 
BRANCH  26  27
ATOM     27  C   UNL     1      35.048 115.161  86.495  0.00  0.00    +0.040 C 
BRANCH  27  28
ATOM     28  C   UNL     1      33.701 115.840  86.544  0.00  0.00    -0.047 A 
ATOM     29  C   UNL     1      33.049 116.070  87.832  0.00  0.00    +0.003 A 
ATOM     30  C   UNL     1      31.775 116.720  87.892  0.00  0.00    +0.000 A 
ATOM     31  C   UNL     1      31.103 117.160  86.682  0.00  0.00    +0.000 A 
ATOM     32  C   UNL     1      31.734 116.940  85.407  0.00  0.00    +0.000 A 
ATOM     33  C   UNL     1      33.038 116.276  85.346  0.00  0.00    +0.003 A 
ENDBRANCH  27  28
ENDBRANCH  26  27
ENDBRANCH  24  26
ENDBRANCH   5  20
TORSDOF 7
ENDMDL
MODEL 5
REMARK VINA RESULT:      -8.2      3.572      4.790
REMARK  Name = LIGAND
REMARK  7 active torsions:
REMARK  status: ('A' for Active; 'I' for Inactive)
REMARK    1  A    between atoms: C_1  and  C_26
REMARK    2  A    between atoms: C_6  and  C_11
REMARK    3  A    between atoms: C_11  and  N_14
REMARK    4  A    between atoms: C_24  and  C_35
REMARK    5  A    between atoms: C_40  and  C_42
REMARK    6  A    between atoms: C_42  and  C_47
REMARK    7  A    between atoms: C_47  and  C_50
REMARK                            x       y       z     vdW  Elec       q    Type
REMARK                         _______ _______ _______ _____ _____    ______ ____
ROOT
ATOM      1  C   UNL     1      43.794 111.732  85.654  0.00  0.00    +0.022 C 
ATOM      2  C   UNL     1      43.284 110.586  86.614  0.00  0.00    +0.027 C 
ATOM      3  C   UNL     1      43.130 111.100  88.057  0.00  0.00    +0.108 C 
ATOM      4  N   UNL     1      42.243 112.303  88.152  0.00  0.00    -0.297 N 
ATOM      5  C   UNL     1      41.016 112.254  88.834  0.00  0.00    +0.248 C 
ATOM      6  O   UNL     1      40.597 111.234  89.364  0.00  0.00    -0.270 OA
ATOM      7  C   UNL     1      42.818 113.422  87.360  0.00  0.00    +0.108 C 
ATOM      8  C   UNL     1      42.867 113.005  85.839  0.00  0.00    +0.027 C 
ENDROOT
BRANCH   1   9
ATOM      9  C   UNL     1      43.932 111.245  84.196  0.00  0.00    -0.044 A 
ATOM     10  C   UNL     1      42.832 110.491  83.610  0.00  0.00    +0.004 A 
ATOM     11  C   UNL     1      42.905 110.006  82.261  0.00  0.00    +0.000 A 
ATOM     12  C   UNL     1      44.058 110.250  81.459  0.00  0.00    +0.002 A 
ATOM     13  C   UNL     1      45.171 110.995  82.006  0.00  0.00    -0.065 A 
ATOM     14  C   UNL     1      45.102 111.488  83.376  0.00  0.00    +0.005 A 
BRANCH  13  15
ATOM     15  C   UNL     1      46.393 111.247  81.161  0.00  0.00    -0.051 C 
BRANCH  15  16
ATOM     16  N   UNL     1      46.257 112.394  80.212  0.00  0.00    +0.381 N 
ATOM     17  H   UNL     1      46.629 113.245  80.604  0.00  0.00    -0.090 HD
ATOM     18  H   UNL     1      45.286 112.577  80.000  0.00  0.00    -0.090 HD
ATOM     19  H   UNL     1      46.735 112.226  79.338  0.00  0.00    -0.090 HD
ENDBRANCH  15  16
ENDBRANCH  13  15
ENDBRANCH   1   9
BRANCH   5  20
ATOM     20  C   UNL     1      40.110 113.439  89.022  0.00  0.00    +0.055 A 
ATOM     21  C   UNL     1      40.313 114.351  90.095  0.00  0.00    +0.123 A 
ATOM     22  N   UNL     1      39.529 115.417  90.341  0.00  0.00    -0.262 NA
ATOM     23  C   UNL     1      38.474 115.648  89.539  0.00  0.00    +0.114 A 
ATOM     24  C   UNL     1      38.140 114.827  88.422  0.00  0.00    -0.028 A 
ATOM     25  C   UNL     1      38.991 113.679  88.154  0.00  0.00    +0.019 A 
BRANCH  24  26
ATOM     26  C   UNL     1      36.943 115.130  87.581  0.00  0.00    +0.041 C 
BRANCH  26  27
ATOM     27  C   UNL     1      36.821 114.221  86.365  0.00  0.00    +0.040 C 
BRANCH  27  28
ATOM     28  C   UNL     1      36.980 114.861  85.008  0.00  0.00    -0.047 A 
ATOM     29  C   UNL     1      36.272 116.103  84.702  0.00  0.00    +0.003 A 
ATOM     30  C   UNL     1      36.421 116.724  83.421  0.00  0.00    +0.000 A 
ATOM     31  C   UNL     1      37.271 116.137  82.400  0.00  0.00    +0.000 A 
ATOM     32  C   UNL     1      37.975 114.915  82.688  0.00  0.00    +0.000 A 
ATOM     33  C   UNL     1      37.823 114.280  83.999  0.00  0.00    +0.003 A 
ENDBRANCH  27  28
ENDBRANCH  26  27
ENDBRANCH  24  26
ENDBRANCH   5  20
TORSDOF 7
ENDMDL
MODEL 6
REMARK VINA RESULT:      -8.0      2.213      5.161
REMARK  Name = LIGAND
REMARK  7 active torsions:
REMARK  status: ('A' for Active; 'I' for Inactive)
REMARK    1  A    between atoms: C_1  and  C_26
REMARK    2  A    between atoms: C_6  and  C_11
REMARK    3  A    between atoms: C_11  and  N_14
REMARK    4  A    between atoms: C_24  and  C_35
REMARK    5  A    between atoms: C_40  and  C_42
REMARK    6  A    between atoms: C_42  and  C_47
REMARK    7  A    between atoms: C_47  and  C_50
REMARK                            x       y       z     vdW  Elec       q    Type
REMARK                         _______ _______ _______ _____ _____    ______ ____
ROOT
ATOM      1  C   UNL     1      42.283 110.530  82.781  0.00  0.00    +0.022 C 
ATOM      2  C   UNL     1      41.204 110.446  81.631  0.00  0.00    +0.027 C 
ATOM      3  C   UNL     1      39.798 110.194  82.209  0.00  0.00    +0.108 C 
ATOM      4  N   UNL     1      39.403 111.214  83.233  0.00  0.00    -0.297 N 
ATOM      5  C   UNL     1      38.335 112.098  83.008  0.00  0.00    +0.248 C 
ATOM      6  O   UNL     1      37.689 112.102  81.968  0.00  0.00    -0.270 OA
ATOM      7  C   UNL     1      40.348 111.175  84.379  0.00  0.00    +0.108 C 
ATOM      8  C   UNL     1      41.789 111.569  83.872  0.00  0.00    +0.027 C 
ENDROOT
BRANCH   1   9
ATOM      9  C   UNL     1      43.697 110.807  82.226  0.00  0.00    -0.044 A 
ATOM     10  C   UNL     1      44.845 110.522  83.077  0.00  0.00    +0.004 A 
ATOM     11  C   UNL     1      46.183 110.764  82.619  0.00  0.00    +0.000 A 
ATOM     12  C   UNL     1      46.424 111.292  81.317  0.00  0.00    +0.002 A 
ATOM     13  C   UNL     1      45.310 111.588  80.442  0.00  0.00    -0.065 A 
ATOM     14  C   UNL     1      43.949 111.345  80.904  0.00  0.00    +0.005 A 
BRANCH  13  15
ATOM     15  C   UNL     1      45.564 112.153  79.068  0.00  0.00    -0.051 C 
BRANCH  15  16
ATOM     16  N   UNL     1      44.883 111.410  77.964  0.00  0.00    +0.381 N 
ATOM     17  H   UNL     1      44.986 110.412  78.071  0.00  0.00    -0.090 HD
ATOM     18  H   UNL     1      45.285 111.644  77.066  0.00  0.00    -0.090 HD
ATOM     19  H   UNL     1      43.895 111.612  77.919  0.00  0.00    -0.090 HD
ENDBRANCH  15  16
ENDBRANCH  13  15
ENDBRANCH   1   9
BRANCH   5  20
ATOM     20  C   UNL     1      37.845 113.099  84.017  0.00  0.00    +0.055 A 
ATOM     21  C   UNL     1      36.932 114.127  83.645  0.00  0.00    +0.123 A 
ATOM     22  N   UNL     1      36.472 115.071  84.486  0.00  0.00    -0.262 NA
ATOM     23  C   UNL     1      36.896 115.068  85.763  0.00  0.00    +0.114 A 
ATOM     24  C   UNL     1      37.807 114.105  86.287  0.00  0.00    -0.028 A 
ATOM     25  C   UNL     1      38.299 113.082  85.380  0.00  0.00    +0.019 A 
BRANCH  24  26
ATOM     26  C   UNL     1      38.251 114.170  87.712  0.00  0.00    +0.041 C 
BRANCH  26  27
ATOM     27  C   UNL     1      39.649 114.754  87.876  0.00  0.00    +0.040 C 
BRANCH  27  28
ATOM     28  C   UNL     1      40.814 113.817  87.675  0.00  0.00    -0.047 A 
ATOM     29  C   UNL     1      40.700 112.417  88.078  0.00  0.00    +0.003 A 
ATOM     30  C   UNL     1      41.797 111.516  87.885  0.00  0.00    +0.000 A 
ATOM     31  C   UNL     1      43.041 111.971  87.291  0.00  0.00    +0.000 A 
ATOM     32  C   UNL     1      43.167 113.348  86.889  0.00  0.00    +0.000 A 
ATOM     33  C   UNL     1      42.045 114.268  87.085  0.00  0.00    +0.003 A 
ENDBRANCH  27  28
ENDBRANCH  26  27
ENDBRANCH  24  26
ENDBRANCH   5  20
TORSDOF 7
ENDMDL
MODEL 7
REMARK VINA RESULT:      -8.0      4.903      7.519
REMARK  Name = LIGAND
REMARK  7 active torsions:
REMARK  status: ('A' for Active; 'I' for Inactive)
REMARK    1  A    between atoms: C_1  and  C_26
REMARK    2  A    between atoms: C_6  and  C_11
REMARK    3  A    between atoms: C_11  and  N_14
REMARK    4  A    between atoms: C_24  and  C_35
REMARK    5  A    between atoms: C_40  and  C_42
REMARK    6  A    between atoms: C_42  and  C_47
REMARK    7  A    between atoms: C_47  and  C_50
REMARK                            x       y       z     vdW  Elec       q    Type
REMARK                         _______ _______ _______ _____ _____    ______ ____
ROOT
ATOM      1  C   UNL     1      42.895 111.129  83.860  0.00  0.00    +0.022 C 
ATOM      2  C   UNL     1      41.609 111.861  83.308  0.00  0.00    +0.027 C 
ATOM      3  C   UNL     1      40.460 111.809  84.332  0.00  0.00    +0.108 C 
ATOM      4  N   UNL     1      40.851 112.362  85.669  0.00  0.00    -0.297 N 
ATOM      5  C   UNL     1      40.255 113.528  86.179  0.00  0.00    +0.248 C 
ATOM      6  O   UNL     1      39.410 114.162  85.561  0.00  0.00    -0.270 OA
ATOM      7  C   UNL     1      41.967 111.566  86.241  0.00  0.00    +0.108 C 
ATOM      8  C   UNL     1      43.229 111.698  85.301  0.00  0.00    +0.027 C 
ENDROOT
BRANCH   1   9
ATOM      9  C   UNL     1      44.068 111.189  82.859  0.00  0.00    -0.044 A 
ATOM     10  C   UNL     1      45.395 110.804  83.321  0.00  0.00    +0.004 A 
ATOM     11  C   UNL     1      46.526 110.846  82.438  0.00  0.00    +0.000 A 
ATOM     12  C   UNL     1      46.379 111.267  81.084  0.00  0.00    +0.002 A 
ATOM     13  C   UNL     1      45.077 111.657  80.588  0.00  0.00    -0.065 A 
ATOM     14  C   UNL     1      43.927 111.617  81.482  0.00  0.00    +0.005 A 
BRANCH  13  15
ATOM     15  C   UNL     1      44.923 112.108  79.159  0.00  0.00    -0.051 C 
BRANCH  15  16
ATOM     16  N   UNL     1      44.896 110.994  78.163  0.00  0.00    +0.381 N 
ATOM     17  H   UNL     1      43.957 110.800  77.849  0.00  0.00    -0.090 HD
ATOM     18  H   UNL     1      45.245 110.136  78.568  0.00  0.00    -0.090 HD
ATOM     19  H   UNL     1      45.455 111.196  77.346  0.00  0.00    -0.090 HD
ENDBRANCH  15  16
ENDBRANCH  13  15
ENDBRANCH   1   9
BRANCH   5  20
ATOM     20  C   UNL     1      40.553 114.099  87.538  0.00  0.00    +0.055 A 
ATOM     21  C   UNL     1      41.651 114.984  87.734  0.00  0.00    +0.123 A 
ATOM     22  N   UNL     1      41.993 115.512  88.924  0.00  0.00    -0.262 NA
ATOM     23  C   UNL     1      41.271 115.188  90.011  0.00  0.00    +0.114 A 
ATOM     24  C   UNL     1      40.144 114.317  89.977  0.00  0.00    -0.028 A 
ATOM     25  C   UNL     1      39.771 113.752  88.691  0.00  0.00    +0.019 A 
BRANCH  24  26
ATOM     26  C   UNL     1      39.396 113.985  91.227  0.00  0.00    +0.041 C 
BRANCH  26  27
ATOM     27  C   UNL     1      39.337 112.488  91.508  0.00  0.00    +0.040 C 
BRANCH  27  28
ATOM     28  C   UNL     1      40.650 111.751  91.594  0.00  0.00    -0.047 A 
ATOM     29  C   UNL     1      41.556 112.007  92.712  0.00  0.00    +0.003 A 
ATOM     30  C   UNL     1      42.802 111.308  92.808  0.00  0.00    +0.000 A 
ATOM     31  C   UNL     1      43.193 110.337  91.802  0.00  0.00    +0.000 A 
ATOM     32  C   UNL     1      42.310 110.074  90.696  0.00  0.00    +0.000 A 
ATOM     33  C   UNL     1      41.035 110.788  90.599  0.00  0.00    +0.003 A 
ENDBRANCH  27  28
ENDBRANCH  26  27
ENDBRANCH  24  26
ENDBRANCH   5  20
TORSDOF 7
ENDMDL
MODEL 8
REMARK VINA RESULT:      -8.0      4.406      7.071
REMARK  Name = LIGAND
REMARK  7 active torsions:
REMARK  status: ('A' for Active; 'I' for Inactive)
REMARK    1  A    between atoms: C_1  and  C_26
REMARK    2  A    between atoms: C_6  and  C_11
REMARK    3  A    between atoms: C_11  and  N_14
REMARK    4  A    between atoms: C_24  and  C_35
REMARK    5  A    between atoms: C_40  and  C_42
REMARK    6  A    between atoms: C_42  and  C_47
REMARK    7  A    between atoms: C_47  and  C_50
REMARK                            x       y       z     vdW  Elec       q    Type
REMARK                         _______ _______ _______ _____ _____    ______ ____
ROOT
ATOM      1  C   UNL     1      42.177 112.701  87.968  0.00  0.00    +0.022 C 
ATOM      2  C   UNL     1      43.019 113.327  86.788  0.00  0.00    +0.027 C 
ATOM      3  C   UNL     1      43.299 112.281  85.692  0.00  0.00    +0.108 C 
ATOM      4  N   UNL     1      42.050 111.642  85.170  0.00  0.00    -0.297 N 
ATOM      5  C   UNL     1      41.636 111.827  83.839  0.00  0.00    +0.248 C 
ATOM      6  O   UNL     1      42.253 112.528  83.049  0.00  0.00    -0.270 OA
ATOM      7  C   UNL     1      41.345 110.930  86.268  0.00  0.00    +0.108 C 
ATOM      8  C   UNL     1      40.903 111.979  87.361  0.00  0.00    +0.027 C 
ENDROOT
BRANCH   1   9
ATOM      9  C   UNL     1      41.863 113.738  89.067  0.00  0.00    -0.044 A 
ATOM     10  C   UNL     1      41.115 114.934  88.699  0.00  0.00    +0.004 A 
ATOM     11  C   UNL     1      40.799 115.937  89.675  0.00  0.00    +0.000 A 
ATOM     12  C   UNL     1      41.211 115.791  91.032  0.00  0.00    +0.002 A 
ATOM     13  C   UNL     1      41.956 114.618  91.436  0.00  0.00    -0.065 A 
ATOM     14  C   UNL     1      42.280 113.597  90.448  0.00  0.00    +0.005 A 
BRANCH  13  15
ATOM     15  C   UNL     1      42.397 114.465  92.869  0.00  0.00    -0.051 C 
BRANCH  15  16
ATOM     16  N   UNL     1      43.148 113.203  93.149  0.00  0.00    +0.381 N 
ATOM     17  H   UNL     1      42.577 112.534  93.643  0.00  0.00    -0.090 HD
ATOM     18  H   UNL     1      43.953 113.381  93.734  0.00  0.00    -0.090 HD
ATOM     19  H   UNL     1      43.477 112.758  92.304  0.00  0.00    -0.090 HD
ENDBRANCH  15  16
ENDBRANCH  13  15
ENDBRANCH   1   9
BRANCH   5  20
ATOM     20  C   UNL     1      40.431 111.163  83.234  0.00  0.00    +0.055 A 
ATOM     21  C   UNL     1      40.500 109.829  82.741  0.00  0.00    +0.123 A 
ATOM     22  N   UNL     1      39.472 109.181  82.163  0.00  0.00    -0.262 NA
ATOM     23  C   UNL     1      38.296 109.820  82.024  0.00  0.00    +0.114 A 
ATOM     24  C   UNL     1      38.068 111.155  82.468  0.00  0.00    -0.028 A 
ATOM     25  C   UNL     1      39.178 111.852  83.097  0.00  0.00    +0.019 A 
BRANCH  24  26
ATOM     26  C   UNL     1      36.742 111.812  82.266  0.00  0.00    +0.041 C 
BRANCH  26  27
ATOM     27  C   UNL     1      36.794 112.973  81.280  0.00  0.00    +0.040 C 
BRANCH  27  28
ATOM     28  C   UNL     1      36.371 114.328  81.790  0.00  0.00    -0.047 A 
ATOM     29  C   UNL     1      37.358 115.218  82.399  0.00  0.00    +0.003 A 
ATOM     30  C   UNL     1      36.971 116.509  82.880  0.00  0.00    +0.000 A 
ATOM     31  C   UNL     1      35.594 116.962  82.777  0.00  0.00    +0.000 A 
ATOM     32  C   UNL     1      34.612 116.097  82.179  0.00  0.00    +0.000 A 
ATOM     33  C   UNL     1      35.009 114.776  81.686  0.00  0.00    +0.003 A 
ENDBRANCH  27  28
ENDBRANCH  26  27
ENDBRANCH  24  26
ENDBRANCH   5  20
TORSDOF 7
ENDMDL
MODEL 9
REMARK VINA RESULT:      -7.7      3.728      4.719
REMARK  Name = LIGAND
REMARK  7 active torsions:
REMARK  status: ('A' for Active; 'I' for Inactive)
REMARK    1  A    between atoms: C_1  and  C_26
REMARK    2  A    between atoms: C_6  and  C_11
REMARK    3  A    between atoms: C_11  and  N_14
REMARK    4  A    between atoms: C_24  and  C_35
REMARK    5  A    between atoms: C_40  and  C_42
REMARK    6  A    between atoms: C_42  and  C_47
REMARK    7  A    between atoms: C_47  and  C_50
REMARK                            x       y       z     vdW  Elec       q    Type
REMARK                         _______ _______ _______ _____ _____    ______ ____
ROOT
ATOM      1  C   UNL     1      43.348 112.088  85.718  0.00  0.00    +0.022 C 
ATOM      2  C   UNL     1      42.940 111.008  86.796  0.00  0.00    +0.027 C 
ATOM      3  C   UNL     1      42.691 111.663  88.168  0.00  0.00    +0.108 C 
ATOM      4  N   UNL     1      41.674 112.762  88.108  0.00  0.00    -0.297 N 
ATOM      5  C   UNL     1      40.441 112.653  88.773  0.00  0.00    +0.248 C 
ATOM      6  O   UNL     1      40.122 111.659  89.411  0.00  0.00    -0.270 OA
ATOM      7  C   UNL     1      42.145 113.841  87.201  0.00  0.00    +0.108 C 
ATOM      8  C   UNL     1      42.282 113.262  85.739  0.00  0.00    +0.027 C 
ENDROOT
BRANCH   1   9
ATOM      9  C   UNL     1      43.580 111.457  84.328  0.00  0.00    -0.044 A 
ATOM     10  C   UNL     1      42.516 110.647  83.748  0.00  0.00    +0.004 A 
ATOM     11  C   UNL     1      42.675 110.030  82.463  0.00  0.00    +0.000 A 
ATOM     12  C   UNL     1      43.880 110.192  81.719  0.00  0.00    +0.002 A 
ATOM     13  C   UNL     1      44.960 110.988  82.262  0.00  0.00    -0.065 A 
ATOM     14  C   UNL     1      44.803 111.616  83.568  0.00  0.00    +0.005 A 
BRANCH  13  15
ATOM     15  C   UNL     1      46.237 111.154  81.480  0.00  0.00    -0.051 C 
BRANCH  15  16
ATOM     16  N   UNL     1      46.039 111.308  80.006  0.00  0.00    +0.381 N 
ATOM     17  H   UNL     1      46.815 110.929  79.486  0.00  0.00    -0.090 HD
ATOM     18  H   UNL     1      45.971 112.284  79.749  0.00  0.00    -0.090 HD
ATOM     19  H   UNL     1      45.200 110.848  79.683  0.00  0.00    -0.090 HD
ENDBRANCH  15  16
ENDBRANCH  13  15
ENDBRANCH   1   9
BRANCH   5  20
ATOM     20  C   UNL     1      39.406 113.743  88.808  0.00  0.00    +0.055 A 
ATOM     21  C   UNL     1      39.526 114.837  89.711  0.00  0.00    +0.123 A 
ATOM     22  N   UNL     1      38.627 115.833  89.817  0.00  0.00    -0.262 NA
ATOM     23  C   UNL     1      37.533 115.807  89.035  0.00  0.00    +0.114 A 
ATOM     24  C   UNL     1      37.271 114.781  88.081  0.00  0.00    -0.028 A 
ATOM     25  C   UNL     1      38.245 113.709  87.963  0.00  0.00    +0.019 A 
BRANCH  24  26
ATOM     26  C   UNL     1      36.025 114.804  87.256  0.00  0.00    +0.041 C 
BRANCH  26  27
ATOM     27  C   UNL     1      34.950 115.723  87.823  0.00  0.00    +0.040 C 
BRANCH  27  28
ATOM     28  C   UNL     1      33.820 116.112  86.902  0.00  0.00    -0.047 A 
ATOM     29  C   UNL     1      32.561 116.602  87.460  0.00  0.00    +0.003 A 
ATOM     30  C   UNL     1      31.485 116.981  86.595  0.00  0.00    +0.000 A 
ATOM     31  C   UNL     1      31.616 116.884  85.152  0.00  0.00    +0.000 A 
ATOM     32  C   UNL     1      32.850 116.403  84.589  0.00  0.00    +0.000 A 
ATOM     33  C   UNL     1      33.952 116.017  85.474  0.00  0.00    +0.003 A 
ENDBRANCH  27  28
ENDBRANCH  26  27
ENDBRANCH  24  26
ENDBRANCH   5  20
TORSDOF 7
ENDMDL
