MODEL 1
REMARK VINA RESULT:      -9.0      0.000      0.000
REMARK  Name = LIGAND
REMARK  7 active torsions:
REMARK  status: ('A' for Active; 'I' for Inactive)
REMARK    1  A    between atoms: C_1  and  C_26
REMARK    2  A    between atoms: C_6  and  C_11
REMARK    3  A    between atoms: C_11  and  N_14
REMARK    4  A    between atoms: C_24  and  C_35
REMARK    5  A    between atoms: C_40  and  C_42
REMARK    6  A    between atoms: C_42  and  C_47
REMARK    7  A    between atoms: C_47  and  C_50
REMARK                            x       y       z     vdW  Elec       q    Type
REMARK                         _______ _______ _______ _____ _____    ______ ____
ROOT
<<<<<<< Updated upstream
ATOM      1  C   UNL     1      42.407 110.649  82.785  0.00  0.00    +0.022 C 
ATOM      2  C   UNL     1      41.372 110.234  81.666  0.00  0.00    +0.027 C 
ATOM      3  C   UNL     1      39.969 110.018  82.263  0.00  0.00    +0.108 C 
ATOM      4  N   UNL     1      39.475 111.208  83.027  0.00  0.00    -0.297 N 
ATOM      5  C   UNL     1      38.358 111.942  82.592  0.00  0.00    +0.248 C 
ATOM      6  O   UNL     1      37.747 111.668  81.568  0.00  0.00    -0.270 OA
ATOM      7  C   UNL     1      40.383 111.493  84.167  0.00  0.00    +0.108 C 
ATOM      8  C   UNL     1      41.811 111.866  83.608  0.00  0.00    +0.027 C 
ENDROOT
BRANCH   1   9
ATOM      9  C   UNL     1      43.816 110.896  82.205  0.00  0.00    -0.044 A 
ATOM     10  C   UNL     1      44.972 110.624  83.050  0.00  0.00    +0.004 A 
ATOM     11  C   UNL     1      46.306 110.840  82.568  0.00  0.00    +0.000 A 
ATOM     12  C   UNL     1      46.536 111.328  81.248  0.00  0.00    +0.002 A 
ATOM     13  C   UNL     1      45.414 111.611  80.379  0.00  0.00    -0.065 A 
ATOM     14  C   UNL     1      44.057 111.394  80.865  0.00  0.00    +0.005 A 
BRANCH  13  15
ATOM     15  C   UNL     1      45.655 112.133  78.987  0.00  0.00    -0.051 C 
BRANCH  15  16
ATOM     16  N   UNL     1      44.886 111.421  77.922  0.00  0.00    +0.381 N 
ATOM     17  H   UNL     1      43.945 111.777  77.843  0.00  0.00    -0.090 HD
ATOM     18  H   UNL     1      44.802 110.435  78.132  0.00  0.00    -0.090 HD
ATOM     19  H   UNL     1      45.321 111.504  77.014  0.00  0.00    -0.090 HD
=======
ATOM      1  C   UNL     1      42.404 110.738  82.911  0.00  0.00    +0.022 C 
ATOM      2  C   UNL     1      41.335 110.279  81.843  0.00  0.00    +0.027 C 
ATOM      3  C   UNL     1      39.950 110.096  82.490  0.00  0.00    +0.108 C 
ATOM      4  N   UNL     1      39.483 111.322  83.214  0.00  0.00    -0.297 N 
ATOM      5  C   UNL     1      38.356 112.041  82.780  0.00  0.00    +0.248 C 
ATOM      6  O   UNL     1      37.714 111.725  81.788  0.00  0.00    -0.270 OA
ATOM      7  C   UNL     1      40.426 111.653  84.313  0.00  0.00    +0.108 C 
ATOM      8  C   UNL     1      41.838 111.994  83.696  0.00  0.00    +0.027 C 
ENDROOT
BRANCH   1   9
ATOM      9  C   UNL     1      43.796 110.952  82.279  0.00  0.00    -0.044 A 
ATOM     10  C   UNL     1      44.976 110.662  83.084  0.00  0.00    +0.004 A 
ATOM     11  C   UNL     1      46.296 110.847  82.553  0.00  0.00    +0.000 A 
ATOM     12  C   UNL     1      46.488 111.321  81.223  0.00  0.00    +0.002 A 
ATOM     13  C   UNL     1      45.342 111.620  80.392  0.00  0.00    -0.065 A 
ATOM     14  C   UNL     1      43.999 111.435  80.928  0.00  0.00    +0.005 A 
BRANCH  13  15
ATOM     15  C   UNL     1      45.544 112.128  78.988  0.00  0.00    -0.051 C 
BRANCH  15  16
ATOM     16  N   UNL     1      44.859 111.315  77.937  0.00  0.00    +0.381 N 
ATOM     17  H   UNL     1      44.328 111.896  77.306  0.00  0.00    -0.090 HD
ATOM     18  H   UNL     1      44.202 110.666  78.350  0.00  0.00    -0.090 HD
ATOM     19  H   UNL     1      45.511 110.778  77.382  0.00  0.00    -0.090 HD
>>>>>>> Stashed changes
ENDBRANCH  15  16
ENDBRANCH  13  15
ENDBRANCH   1   9
BRANCH   5  20
<<<<<<< Updated upstream
ATOM     20  C   UNL     1      37.771 113.104  83.344  0.00  0.00    +0.055 A 
ATOM     21  C   UNL     1      37.352 112.964  84.697  0.00  0.00    +0.123 A 
ATOM     22  N   UNL     1      36.796 113.951  85.423  0.00  0.00    -0.262 NA
ATOM     23  C   UNL     1      36.605 115.152  84.850  0.00  0.00    +0.114 A 
ATOM     24  C   UNL     1      36.973 115.450  83.505  0.00  0.00    -0.028 A 
ATOM     25  C   UNL     1      37.579 114.386  82.723  0.00  0.00    +0.019 A 
BRANCH  24  26
ATOM     26  C   UNL     1      36.716 116.803  82.924  0.00  0.00    +0.041 C 
BRANCH  26  27
ATOM     27  C   UNL     1      35.234 117.138  82.822  0.00  0.00    +0.040 C 
BRANCH  27  28
ATOM     28  C   UNL     1      34.343 116.122  82.151  0.00  0.00    -0.047 A 
ATOM     29  C   UNL     1      33.383 115.358  82.945  0.00  0.00    +0.003 A 
ATOM     30  C   UNL     1      32.527 114.397  82.317  0.00  0.00    +0.000 A 
ATOM     31  C   UNL     1      32.594 114.158  80.886  0.00  0.00    +0.000 A 
ATOM     32  C   UNL     1      33.535 114.904  80.092  0.00  0.00    +0.000 A 
ATOM     33  C   UNL     1      34.409 115.888  80.734  0.00  0.00    +0.003 A 
=======
ATOM     20  C   UNL     1      37.797 113.239  83.496  0.00  0.00    +0.055 A 
ATOM     21  C   UNL     1      37.458 113.173  84.877  0.00  0.00    +0.123 A 
ATOM     22  N   UNL     1      36.930 114.194  85.577  0.00  0.00    -0.262 NA
ATOM     23  C   UNL     1      36.688 115.358  84.947  0.00  0.00    +0.114 A 
ATOM     24  C   UNL     1      36.974 115.580  83.568  0.00  0.00    -0.028 A 
ATOM     25  C   UNL     1      37.550 114.479  82.815  0.00  0.00    +0.019 A 
BRANCH  24  26
ATOM     26  C   UNL     1      36.663 116.893  82.925  0.00  0.00    +0.041 C 
BRANCH  26  27
ATOM     27  C   UNL     1      35.169 117.178  82.839  0.00  0.00    +0.040 C 
BRANCH  27  28
ATOM     28  C   UNL     1      34.305 116.128  82.187  0.00  0.00    -0.047 A 
ATOM     29  C   UNL     1      34.417 115.882  80.750  0.00  0.00    +0.003 A 
ATOM     30  C   UNL     1      33.608 114.883  80.121  0.00  0.00    +0.000 A 
ATOM     31  C   UNL     1      32.659 114.097  80.890  0.00  0.00    +0.000 A 
ATOM     32  C   UNL     1      32.538 114.328  82.305  0.00  0.00    +0.000 A 
ATOM     33  C   UNL     1      33.367 115.350  82.949  0.00  0.00    +0.003 A 
>>>>>>> Stashed changes
ENDBRANCH  27  28
ENDBRANCH  26  27
ENDBRANCH  24  26
ENDBRANCH   5  20
TORSDOF 7
ENDMDL
MODEL 2
<<<<<<< Updated upstream
REMARK VINA RESULT:      -8.5      3.413      5.629
=======
REMARK VINA RESULT:      -8.6      4.083      6.593
>>>>>>> Stashed changes
REMARK  Name = LIGAND
REMARK  7 active torsions:
REMARK  status: ('A' for Active; 'I' for Inactive)
REMARK    1  A    between atoms: C_1  and  C_26
REMARK    2  A    between atoms: C_6  and  C_11
REMARK    3  A    between atoms: C_11  and  N_14
REMARK    4  A    between atoms: C_24  and  C_35
REMARK    5  A    between atoms: C_40  and  C_42
REMARK    6  A    between atoms: C_42  and  C_47
REMARK    7  A    between atoms: C_47  and  C_50
REMARK                            x       y       z     vdW  Elec       q    Type
REMARK                         _______ _______ _______ _____ _____    ______ ____
ROOT
<<<<<<< Updated upstream
ATOM      1  C   UNL     1      42.505 110.452  83.008  0.00  0.00    +0.022 C 
ATOM      2  C   UNL     1      41.343 110.365  81.941  0.00  0.00    +0.027 C 
ATOM      3  C   UNL     1      39.990 110.079  82.619  0.00  0.00    +0.108 C 
ATOM      4  N   UNL     1      39.656 111.076  83.687  0.00  0.00    -0.297 N 
ATOM      5  C   UNL     1      38.559 111.944  83.557  0.00  0.00    +0.248 C 
ATOM      6  O   UNL     1      37.836 111.952  82.569  0.00  0.00    -0.270 OA
ATOM      7  C   UNL     1      40.685 111.038  84.757  0.00  0.00    +0.108 C 
ATOM      8  C   UNL     1      42.077 111.465  84.149  0.00  0.00    +0.027 C 
ENDROOT
BRANCH   1   9
ATOM      9  C   UNL     1      43.867 110.762  82.352  0.00  0.00    -0.044 A 
ATOM     10  C   UNL     1      45.080 110.522  83.124  0.00  0.00    +0.004 A 
ATOM     11  C   UNL     1      46.375 110.797  82.570  0.00  0.00    +0.000 A 
ATOM     12  C   UNL     1      46.509 111.315  81.249  0.00  0.00    +0.002 A 
ATOM     13  C   UNL     1      45.328 111.567  80.451  0.00  0.00    -0.065 A 
ATOM     14  C   UNL     1      44.011 111.290  81.010  0.00  0.00    +0.005 A 
BRANCH  13  15
ATOM     15  C   UNL     1      45.469 112.121  79.057  0.00  0.00    -0.051 C 
BRANCH  15  16
ATOM     16  N   UNL     1      44.868 111.261  77.992  0.00  0.00    +0.381 N 
ATOM     17  H   UNL     1      44.200 111.773  77.435  0.00  0.00    -0.090 HD
ATOM     18  H   UNL     1      44.367 110.480  78.394  0.00  0.00    -0.090 HD
ATOM     19  H   UNL     1      45.565 110.886  77.364  0.00  0.00    -0.090 HD
=======
ATOM      1  C   UNL     1      42.760 110.341  82.923  0.00  0.00    +0.022 C 
ATOM      2  C   UNL     1      41.537 110.787  82.029  0.00  0.00    +0.027 C 
ATOM      3  C   UNL     1      40.199 110.423  82.701  0.00  0.00    +0.108 C 
ATOM      4  N   UNL     1      40.076 110.982  84.085  0.00  0.00    -0.297 N 
ATOM      5  C   UNL     1      39.110 111.953  84.397  0.00  0.00    +0.248 C 
ATOM      6  O   UNL     1      38.339 112.409  83.563  0.00  0.00    -0.270 OA
ATOM      7  C   UNL     1      41.151 110.433  84.952  0.00  0.00    +0.108 C 
ATOM      8  C   UNL     1      42.552 110.897  84.392  0.00  0.00    +0.027 C 
ENDROOT
BRANCH   1   9
ATOM      9  C   UNL     1      44.112 110.718  82.280  0.00  0.00    -0.044 A 
ATOM     10  C   UNL     1      45.324 110.570  83.076  0.00  0.00    +0.004 A 
ATOM     11  C   UNL     1      46.609 110.911  82.535  0.00  0.00    +0.000 A 
ATOM     12  C   UNL     1      46.733 111.404  81.203  0.00  0.00    +0.002 A 
ATOM     13  C   UNL     1      45.552 111.565  80.382  0.00  0.00    -0.065 A 
ATOM     14  C   UNL     1      44.245 111.222  80.928  0.00  0.00    +0.005 A 
BRANCH  13  15
ATOM     15  C   UNL     1      45.682 112.093  78.976  0.00  0.00    -0.051 C 
BRANCH  15  16
ATOM     16  N   UNL     1      44.721 111.489  78.003  0.00  0.00    +0.381 N 
ATOM     17  H   UNL     1      44.955 110.529  77.799  0.00  0.00    -0.090 HD
ATOM     18  H   UNL     1      44.740 111.982  77.120  0.00  0.00    -0.090 HD
ATOM     19  H   UNL     1      43.770 111.506  78.342  0.00  0.00    -0.090 HD
>>>>>>> Stashed changes
ENDBRANCH  15  16
ENDBRANCH  13  15
ENDBRANCH   1   9
BRANCH   5  20
<<<<<<< Updated upstream
ATOM     20  C   UNL     1      38.130 112.921  84.616  0.00  0.00    +0.055 A 
ATOM     21  C   UNL     1      37.606 114.197  84.265  0.00  0.00    +0.123 A 
ATOM     22  N   UNL     1      37.227 115.131  85.158  0.00  0.00    -0.262 NA
ATOM     23  C   UNL     1      37.351 114.865  86.470  0.00  0.00    +0.114 A 
ATOM     24  C   UNL     1      37.857 113.634  86.979  0.00  0.00    -0.028 A 
ATOM     25  C   UNL     1      38.261 112.624  86.016  0.00  0.00    +0.019 A 
BRANCH  24  26
ATOM     26  C   UNL     1      37.986 113.410  88.451  0.00  0.00    +0.041 C 
BRANCH  26  27
ATOM     27  C   UNL     1      38.052 114.707  89.249  0.00  0.00    +0.040 C 
BRANCH  27  28
ATOM     28  C   UNL     1      39.396 115.105  89.806  0.00  0.00    -0.047 A 
ATOM     29  C   UNL     1      39.512 115.518  91.203  0.00  0.00    +0.003 A 
ATOM     30  C   UNL     1      40.784 115.891  91.745  0.00  0.00    +0.000 A 
ATOM     31  C   UNL     1      41.981 115.870  90.923  0.00  0.00    +0.000 A 
ATOM     32  C   UNL     1      41.882 115.464  89.546  0.00  0.00    +0.000 A 
ATOM     33  C   UNL     1      40.581 115.082  88.992  0.00  0.00    +0.003 A 
=======
ATOM     20  C   UNL     1      38.890 112.507  85.778  0.00  0.00    +0.055 A 
ATOM     21  C   UNL     1      37.835 112.021  86.601  0.00  0.00    +0.123 A 
ATOM     22  N   UNL     1      37.561 112.486  87.834  0.00  0.00    -0.262 NA
ATOM     23  C   UNL     1      38.316 113.480  88.336  0.00  0.00    +0.114 A 
ATOM     24  C   UNL     1      39.408 114.070  87.636  0.00  0.00    -0.028 A 
ATOM     25  C   UNL     1      39.706 113.564  86.307  0.00  0.00    +0.019 A 
BRANCH  24  26
ATOM     26  C   UNL     1      40.195 115.185  88.246  0.00  0.00    +0.041 C 
BRANCH  26  27
ATOM     27  C   UNL     1      41.615 114.779  88.620  0.00  0.00    +0.040 C 
BRANCH  27  28
ATOM     28  C   UNL     1      41.907 114.564  90.084  0.00  0.00    -0.047 A 
ATOM     29  C   UNL     1      41.790 115.679  91.022  0.00  0.00    +0.003 A 
ATOM     30  C   UNL     1      42.056 115.485  92.415  0.00  0.00    +0.000 A 
ATOM     31  C   UNL     1      42.450 114.184  92.926  0.00  0.00    +0.000 A 
ATOM     32  C   UNL     1      42.569 113.077  92.014  0.00  0.00    +0.000 A 
ATOM     33  C   UNL     1      42.295 113.275  90.589  0.00  0.00    +0.003 A 
>>>>>>> Stashed changes
ENDBRANCH  27  28
ENDBRANCH  26  27
ENDBRANCH  24  26
ENDBRANCH   5  20
TORSDOF 7
ENDMDL
MODEL 3
<<<<<<< Updated upstream
REMARK VINA RESULT:      -8.4      4.465      6.825
=======
REMARK VINA RESULT:      -8.4      1.798      2.521
>>>>>>> Stashed changes
REMARK  Name = LIGAND
REMARK  7 active torsions:
REMARK  status: ('A' for Active; 'I' for Inactive)
REMARK    1  A    between atoms: C_1  and  C_26
REMARK    2  A    between atoms: C_6  and  C_11
REMARK    3  A    between atoms: C_11  and  N_14
REMARK    4  A    between atoms: C_24  and  C_35
REMARK    5  A    between atoms: C_40  and  C_42
REMARK    6  A    between atoms: C_42  and  C_47
REMARK    7  A    between atoms: C_47  and  C_50
REMARK                            x       y       z     vdW  Elec       q    Type
REMARK                         _______ _______ _______ _____ _____    ______ ____
ROOT
<<<<<<< Updated upstream
ATOM      1  C   UNL     1      42.318 110.487  83.515  0.00  0.00    +0.022 C 
ATOM      2  C   UNL     1      41.004 110.886  82.735  0.00  0.00    +0.027 C 
ATOM      3  C   UNL     1      39.747 110.528  83.550  0.00  0.00    +0.108 C 
ATOM      4  N   UNL     1      39.753 111.134  84.920  0.00  0.00    -0.297 N 
ATOM      5  C   UNL     1      38.807 112.103  85.294  0.00  0.00    +0.248 C 
ATOM      6  O   UNL     1      37.949 112.518  84.527  0.00  0.00    -0.270 OA
ATOM      7  C   UNL     1      40.919 110.631  85.692  0.00  0.00    +0.108 C 
ATOM      8  C   UNL     1      42.248 111.093  84.978  0.00  0.00    +0.027 C 
ENDROOT
BRANCH   1   9
ATOM      9  C   UNL     1      43.592 110.859  82.727  0.00  0.00    -0.044 A 
ATOM     10  C   UNL     1      44.867 110.870  83.433  0.00  0.00    +0.004 A 
ATOM     11  C   UNL     1      46.084 111.213  82.754  0.00  0.00    +0.000 A 
ATOM     12  C   UNL     1      46.077 111.556  81.371  0.00  0.00    +0.002 A 
ATOM     13  C   UNL     1      44.831 111.558  80.636  0.00  0.00    -0.065 A 
ATOM     14  C   UNL     1      43.592 111.211  81.321  0.00  0.00    +0.005 A 
BRANCH  13  15
ATOM     15  C   UNL     1      44.822 111.927  79.175  0.00  0.00    -0.051 C 
BRANCH  15  16
ATOM     16  N   UNL     1      46.181 112.090  78.574  0.00  0.00    +0.381 N 
ATOM     17  H   UNL     1      46.673 112.873  78.978  0.00  0.00    -0.090 HD
ATOM     18  H   UNL     1      46.120 112.271  77.581  0.00  0.00    -0.090 HD
ATOM     19  H   UNL     1      46.756 111.269  78.701  0.00  0.00    -0.090 HD
=======
ATOM      1  C   UNL     1      42.072 111.296  83.360  0.00  0.00    +0.022 C 
ATOM      2  C   UNL     1      40.939 110.513  82.587  0.00  0.00    +0.027 C 
ATOM      3  C   UNL     1      39.608 110.560  83.362  0.00  0.00    +0.108 C 
ATOM      4  N   UNL     1      39.169 111.958  83.674  0.00  0.00    -0.297 N 
ATOM      5  C   UNL     1      37.999 112.498  83.113  0.00  0.00    +0.248 C 
ATOM      6  O   UNL     1      37.293 111.874  82.332  0.00  0.00    -0.270 OA
ATOM      7  C   UNL     1      40.182 112.630  84.527  0.00  0.00    +0.108 C 
ATOM      8  C   UNL     1      41.538 112.742  83.727  0.00  0.00    +0.027 C 
ENDROOT
BRANCH   1   9
ATOM      9  C   UNL     1      43.410 111.283  82.589  0.00  0.00    -0.044 A 
ATOM     10  C   UNL     1      44.647 111.150  83.348  0.00  0.00    +0.004 A 
ATOM     11  C   UNL     1      45.921 111.138  82.688  0.00  0.00    +0.000 A 
ATOM     12  C   UNL     1      46.010 111.257  81.271  0.00  0.00    +0.002 A 
ATOM     13  C   UNL     1      44.804 111.392  80.482  0.00  0.00    -0.065 A 
ATOM     14  C   UNL     1      43.508 111.406  81.149  0.00  0.00    +0.005 A 
BRANCH  13  15
ATOM     15  C   UNL     1      44.897 111.525  78.984  0.00  0.00    -0.051 C 
BRANCH  15  16
ATOM     16  N   UNL     1      46.199 112.075  78.497  0.00  0.00    +0.381 N 
ATOM     17  H   UNL     1      46.693 111.407  77.925  0.00  0.00    -0.090 HD
ATOM     18  H   UNL     1      46.812 112.298  79.270  0.00  0.00    -0.090 HD
ATOM     19  H   UNL     1      46.079 112.916  77.950  0.00  0.00    -0.090 HD
>>>>>>> Stashed changes
ENDBRANCH  15  16
ENDBRANCH  13  15
ENDBRANCH   1   9
BRANCH   5  20
<<<<<<< Updated upstream
ATOM     20  C   UNL     1      38.717 112.703  86.670  0.00  0.00    +0.055 A 
ATOM     21  C   UNL     1      37.836 112.161  87.648  0.00  0.00    +0.123 A 
ATOM     22  N   UNL     1      37.683 112.660  88.889  0.00  0.00    -0.262 NA
ATOM     23  C   UNL     1      38.392 113.745  89.245  0.00  0.00    +0.114 A 
ATOM     24  C   UNL     1      39.317 114.401  88.380  0.00  0.00    -0.028 A 
ATOM     25  C   UNL     1      39.485 113.858  87.043  0.00  0.00    +0.019 A 
BRANCH  24  26
ATOM     26  C   UNL     1      40.060 115.615  88.834  0.00  0.00    +0.041 C 
BRANCH  26  27
ATOM     27  C   UNL     1      41.541 115.353  89.078  0.00  0.00    +0.040 C 
BRANCH  27  28
ATOM     28  C   UNL     1      41.922 114.726  90.396  0.00  0.00    -0.047 A 
ATOM     29  C   UNL     1      42.000 115.553  91.599  0.00  0.00    +0.003 A 
ATOM     30  C   UNL     1      42.352 114.969  92.858  0.00  0.00    +0.000 A 
ATOM     31  C   UNL     1      42.642 113.550  92.967  0.00  0.00    +0.000 A 
ATOM     32  C   UNL     1      42.569 112.723  91.791  0.00  0.00    +0.000 A 
ATOM     33  C   UNL     1      42.206 113.322  90.504  0.00  0.00    +0.003 A 
=======
ATOM     20  C   UNL     1      37.467 113.867  83.435  0.00  0.00    +0.055 A 
ATOM     21  C   UNL     1      37.469 114.900  82.456  0.00  0.00    +0.123 A 
ATOM     22  N   UNL     1      37.034 116.154  82.678  0.00  0.00    -0.262 NA
ATOM     23  C   UNL     1      36.573 116.476  83.900  0.00  0.00    +0.114 A 
ATOM     24  C   UNL     1      36.505 115.552  84.984  0.00  0.00    -0.028 A 
ATOM     25  C   UNL     1      36.969 114.197  84.741  0.00  0.00    +0.019 A 
BRANCH  24  26
ATOM     26  C   UNL     1      35.998 115.980  86.323  0.00  0.00    +0.041 C 
BRANCH  26  27
ATOM     27  C   UNL     1      34.728 115.251  86.742  0.00  0.00    +0.040 C 
BRANCH  27  28
ATOM     28  C   UNL     1      33.441 115.672  86.077  0.00  0.00    -0.047 A 
ATOM     29  C   UNL     1      33.057 115.084  84.795  0.00  0.00    +0.003 A 
ATOM     30  C   UNL     1      31.834 115.470  84.158  0.00  0.00    +0.000 A 
ATOM     31  C   UNL     1      30.953 116.451  84.766  0.00  0.00    +0.000 A 
ATOM     32  C   UNL     1      31.318 117.038  86.029  0.00  0.00    +0.000 A 
ATOM     33  C   UNL     1      32.568 116.641  86.680  0.00  0.00    +0.003 A 
>>>>>>> Stashed changes
ENDBRANCH  27  28
ENDBRANCH  26  27
ENDBRANCH  24  26
ENDBRANCH   5  20
TORSDOF 7
ENDMDL
MODEL 4
<<<<<<< Updated upstream
REMARK VINA RESULT:      -8.4      2.152      2.932
=======
REMARK VINA RESULT:      -8.2      2.313      4.703
>>>>>>> Stashed changes
REMARK  Name = LIGAND
REMARK  7 active torsions:
REMARK  status: ('A' for Active; 'I' for Inactive)
REMARK    1  A    between atoms: C_1  and  C_26
REMARK    2  A    between atoms: C_6  and  C_11
REMARK    3  A    between atoms: C_11  and  N_14
REMARK    4  A    between atoms: C_24  and  C_35
REMARK    5  A    between atoms: C_40  and  C_42
REMARK    6  A    between atoms: C_42  and  C_47
REMARK    7  A    between atoms: C_47  and  C_50
REMARK                            x       y       z     vdW  Elec       q    Type
REMARK                         _______ _______ _______ _____ _____    ______ ____
ROOT
<<<<<<< Updated upstream
ATOM      1  C   UNL     1      41.966 111.175  83.078  0.00  0.00    +0.022 C 
ATOM      2  C   UNL     1      40.892 110.529  82.116  0.00  0.00    +0.027 C 
ATOM      3  C   UNL     1      39.488 110.570  82.747  0.00  0.00    +0.108 C 
ATOM      4  N   UNL     1      39.074 111.953  83.150  0.00  0.00    -0.297 N 
ATOM      5  C   UNL     1      37.996 112.603  82.527  0.00  0.00    +0.248 C 
ATOM      6  O   UNL     1      37.354 112.094  81.618  0.00  0.00    -0.270 OA
ATOM      7  C   UNL     1      40.015 112.488  84.168  0.00  0.00    +0.108 C 
ATOM      8  C   UNL     1      41.453 112.606  83.530  0.00  0.00    +0.027 C 
ENDROOT
BRANCH   1   9
ATOM      9  C   UNL     1      43.377 111.167  82.454  0.00  0.00    -0.044 A 
ATOM     10  C   UNL     1      44.521 110.936  83.328  0.00  0.00    +0.004 A 
ATOM     11  C   UNL     1      45.858 110.923  82.807  0.00  0.00    +0.000 A 
ATOM     12  C   UNL     1      46.103 111.138  81.419  0.00  0.00    +0.002 A 
ATOM     13  C   UNL     1      44.994 111.372  80.520  0.00  0.00    -0.065 A 
ATOM     14  C   UNL     1      43.634 111.387  81.045  0.00  0.00    +0.005 A 
BRANCH  13  15
ATOM     15  C   UNL     1      45.252 111.606  79.054  0.00  0.00    -0.051 C 
BRANCH  15  16
ATOM     16  N   UNL     1      44.410 112.681  78.446  0.00  0.00    +0.381 N 
ATOM     17  H   UNL     1      44.488 112.689  77.440  0.00  0.00    -0.090 HD
ATOM     18  H   UNL     1      44.702 113.596  78.763  0.00  0.00    -0.090 HD
ATOM     19  H   UNL     1      43.432 112.577  78.675  0.00  0.00    -0.090 HD
=======
ATOM      1  C   UNL     1      42.304 110.722  82.821  0.00  0.00    +0.022 C 
ATOM      2  C   UNL     1      41.256 110.371  81.692  0.00  0.00    +0.027 C 
ATOM      3  C   UNL     1      39.847 110.180  82.285  0.00  0.00    +0.108 C 
ATOM      4  N   UNL     1      39.390 111.362  83.083  0.00  0.00    -0.297 N 
ATOM      5  C   UNL     1      38.296 112.142  82.672  0.00  0.00    +0.248 C 
ATOM      6  O   UNL     1      37.676 111.917  81.641  0.00  0.00    -0.270 OA
ATOM      7  C   UNL     1      40.308 111.586  84.230  0.00  0.00    +0.108 C 
ATOM      8  C   UNL     1      41.746 111.932  83.680  0.00  0.00    +0.027 C 
ENDROOT
BRANCH   1   9
ATOM      9  C   UNL     1      43.719 110.943  82.246  0.00  0.00    -0.044 A 
ATOM     10  C   UNL     1      44.866 110.661  83.099  0.00  0.00    +0.004 A 
ATOM     11  C   UNL     1      46.206 110.853  82.622  0.00  0.00    +0.000 A 
ATOM     12  C   UNL     1      46.450 111.326  81.300  0.00  0.00    +0.002 A 
ATOM     13  C   UNL     1      45.336 111.618  80.423  0.00  0.00    -0.065 A 
ATOM     14  C   UNL     1      43.974 111.425  80.903  0.00  0.00    +0.005 A 
BRANCH  13  15
ATOM     15  C   UNL     1      45.593 112.124  79.027  0.00  0.00    -0.051 C 
BRANCH  15  16
ATOM     16  N   UNL     1      44.859 111.379  77.959  0.00  0.00    +0.381 N 
ATOM     17  H   UNL     1      43.980 111.018  78.297  0.00  0.00    -0.090 HD
ATOM     18  H   UNL     1      45.393 110.581  77.640  0.00  0.00    -0.090 HD
ATOM     19  H   UNL     1      44.663 111.957  77.154  0.00  0.00    -0.090 HD
>>>>>>> Stashed changes
ENDBRANCH  15  16
ENDBRANCH  13  15
ENDBRANCH   1   9
BRANCH   5  20
<<<<<<< Updated upstream
ATOM     20  C   UNL     1      37.488 113.961  82.927  0.00  0.00    +0.055 A 
ATOM     21  C   UNL     1      37.426 115.025  81.983  0.00  0.00    +0.123 A 
ATOM     22  N   UNL     1      37.008 116.271  82.274  0.00  0.00    -0.262 NA
ATOM     23  C   UNL     1      36.631 116.553  83.534  0.00  0.00    +0.114 A 
ATOM     24  C   UNL     1      36.636 115.596  84.590  0.00  0.00    -0.028 A 
ATOM     25  C   UNL     1      37.081 114.249  84.274  0.00  0.00    +0.019 A 
BRANCH  24  26
ATOM     26  C   UNL     1      36.221 115.981  85.973  0.00  0.00    +0.041 C 
BRANCH  26  27
ATOM     27  C   UNL     1      35.048 115.161  86.495  0.00  0.00    +0.040 C 
BRANCH  27  28
ATOM     28  C   UNL     1      33.701 115.840  86.544  0.00  0.00    -0.047 A 
ATOM     29  C   UNL     1      33.049 116.070  87.832  0.00  0.00    +0.003 A 
ATOM     30  C   UNL     1      31.775 116.720  87.892  0.00  0.00    +0.000 A 
ATOM     31  C   UNL     1      31.103 117.160  86.682  0.00  0.00    +0.000 A 
ATOM     32  C   UNL     1      31.734 116.940  85.407  0.00  0.00    +0.000 A 
ATOM     33  C   UNL     1      33.038 116.276  85.346  0.00  0.00    +0.003 A 
=======
ATOM     20  C   UNL     1      37.745 113.299  83.458  0.00  0.00    +0.055 A 
ATOM     21  C   UNL     1      37.781 114.622  82.935  0.00  0.00    +0.123 A 
ATOM     22  N   UNL     1      37.332 115.708  83.591  0.00  0.00    -0.262 NA
ATOM     23  C   UNL     1      36.821 115.557  84.825  0.00  0.00    +0.114 A 
ATOM     24  C   UNL     1      36.714 114.298  85.485  0.00  0.00    -0.028 A 
ATOM     25  C   UNL     1      37.194 113.125  84.773  0.00  0.00    +0.019 A 
BRANCH  24  26
ATOM     26  C   UNL     1      36.152 114.203  86.866  0.00  0.00    +0.041 C 
BRANCH  26  27
ATOM     27  C   UNL     1      37.084 113.497  87.843  0.00  0.00    +0.040 C 
BRANCH  27  28
ATOM     28  C   UNL     1      38.321 114.244  88.275  0.00  0.00    -0.047 A 
ATOM     29  C   UNL     1      38.262 115.152  89.419  0.00  0.00    +0.003 A 
ATOM     30  C   UNL     1      39.431 115.860  89.844  0.00  0.00    +0.000 A 
ATOM     31  C   UNL     1      40.696 115.696  89.150  0.00  0.00    +0.000 A 
ATOM     32  C   UNL     1      40.770 114.805  88.022  0.00  0.00    +0.000 A 
ATOM     33  C   UNL     1      39.573 114.079  87.589  0.00  0.00    +0.003 A 
>>>>>>> Stashed changes
ENDBRANCH  27  28
ENDBRANCH  26  27
ENDBRANCH  24  26
ENDBRANCH   5  20
TORSDOF 7
ENDMDL
MODEL 5
<<<<<<< Updated upstream
REMARK VINA RESULT:      -8.2      3.572      4.790
=======
REMARK VINA RESULT:      -8.2      5.113      7.669
>>>>>>> Stashed changes
REMARK  Name = LIGAND
REMARK  7 active torsions:
REMARK  status: ('A' for Active; 'I' for Inactive)
REMARK    1  A    between atoms: C_1  and  C_26
REMARK    2  A    between atoms: C_6  and  C_11
REMARK    3  A    between atoms: C_11  and  N_14
REMARK    4  A    between atoms: C_24  and  C_35
REMARK    5  A    between atoms: C_40  and  C_42
REMARK    6  A    between atoms: C_42  and  C_47
REMARK    7  A    between atoms: C_47  and  C_50
REMARK                            x       y       z     vdW  Elec       q    Type
REMARK                         _______ _______ _______ _____ _____    ______ ____
ROOT
<<<<<<< Updated upstream
ATOM      1  C   UNL     1      43.794 111.732  85.654  0.00  0.00    +0.022 C 
ATOM      2  C   UNL     1      43.284 110.586  86.614  0.00  0.00    +0.027 C 
ATOM      3  C   UNL     1      43.130 111.100  88.057  0.00  0.00    +0.108 C 
ATOM      4  N   UNL     1      42.243 112.303  88.152  0.00  0.00    -0.297 N 
ATOM      5  C   UNL     1      41.016 112.254  88.834  0.00  0.00    +0.248 C 
ATOM      6  O   UNL     1      40.597 111.234  89.364  0.00  0.00    -0.270 OA
ATOM      7  C   UNL     1      42.818 113.422  87.360  0.00  0.00    +0.108 C 
ATOM      8  C   UNL     1      42.867 113.005  85.839  0.00  0.00    +0.027 C 
ENDROOT
BRANCH   1   9
ATOM      9  C   UNL     1      43.932 111.245  84.196  0.00  0.00    -0.044 A 
ATOM     10  C   UNL     1      42.832 110.491  83.610  0.00  0.00    +0.004 A 
ATOM     11  C   UNL     1      42.905 110.006  82.261  0.00  0.00    +0.000 A 
ATOM     12  C   UNL     1      44.058 110.250  81.459  0.00  0.00    +0.002 A 
ATOM     13  C   UNL     1      45.171 110.995  82.006  0.00  0.00    -0.065 A 
ATOM     14  C   UNL     1      45.102 111.488  83.376  0.00  0.00    +0.005 A 
BRANCH  13  15
ATOM     15  C   UNL     1      46.393 111.247  81.161  0.00  0.00    -0.051 C 
BRANCH  15  16
ATOM     16  N   UNL     1      46.257 112.394  80.212  0.00  0.00    +0.381 N 
ATOM     17  H   UNL     1      46.629 113.245  80.604  0.00  0.00    -0.090 HD
ATOM     18  H   UNL     1      45.286 112.577  80.000  0.00  0.00    -0.090 HD
ATOM     19  H   UNL     1      46.735 112.226  79.338  0.00  0.00    -0.090 HD
=======
ATOM      1  C   UNL     1      42.819 111.083  83.801  0.00  0.00    +0.022 C 
ATOM      2  C   UNL     1      41.503 111.758  83.246  0.00  0.00    +0.027 C 
ATOM      3  C   UNL     1      40.367 111.690  84.283  0.00  0.00    +0.108 C 
ATOM      4  N   UNL     1      40.751 112.284  85.604  0.00  0.00    -0.297 N 
ATOM      5  C   UNL     1      40.120 113.440  86.095  0.00  0.00    +0.248 C 
ATOM      6  O   UNL     1      39.248 114.031  85.473  0.00  0.00    -0.270 OA
ATOM      7  C   UNL     1      41.900 111.540  86.181  0.00  0.00    +0.108 C 
ATOM      8  C   UNL     1      43.147 111.695  85.226  0.00  0.00    +0.027 C 
ENDROOT
BRANCH   1   9
ATOM      9  C   UNL     1      43.980 111.162  82.787  0.00  0.00    -0.044 A 
ATOM     10  C   UNL     1      45.312 110.768  83.225  0.00  0.00    +0.004 A 
ATOM     11  C   UNL     1      46.432 110.826  82.329  0.00  0.00    +0.000 A 
ATOM     12  C   UNL     1      46.269 111.272  80.985  0.00  0.00    +0.002 A 
ATOM     13  C   UNL     1      44.961 111.674  80.513  0.00  0.00    -0.065 A 
ATOM     14  C   UNL     1      43.822 111.617  81.420  0.00  0.00    +0.005 A 
BRANCH  13  15
ATOM     15  C   UNL     1      44.790 112.153  79.095  0.00  0.00    -0.051 C 
BRANCH  15  16
ATOM     16  N   UNL     1      44.975 111.089  78.061  0.00  0.00    +0.381 N 
ATOM     17  H   UNL     1      45.362 111.464  77.208  0.00  0.00    -0.090 HD
ATOM     18  H   UNL     1      44.090 110.666  77.812  0.00  0.00    -0.090 HD
ATOM     19  H   UNL     1      45.588 110.350  78.376  0.00  0.00    -0.090 HD
>>>>>>> Stashed changes
ENDBRANCH  15  16
ENDBRANCH  13  15
ENDBRANCH   1   9
BRANCH   5  20
<<<<<<< Updated upstream
ATOM     20  C   UNL     1      40.110 113.439  89.022  0.00  0.00    +0.055 A 
ATOM     21  C   UNL     1      40.313 114.351  90.095  0.00  0.00    +0.123 A 
ATOM     22  N   UNL     1      39.529 115.417  90.341  0.00  0.00    -0.262 NA
ATOM     23  C   UNL     1      38.474 115.648  89.539  0.00  0.00    +0.114 A 
ATOM     24  C   UNL     1      38.140 114.827  88.422  0.00  0.00    -0.028 A 
ATOM     25  C   UNL     1      38.991 113.679  88.154  0.00  0.00    +0.019 A 
BRANCH  24  26
ATOM     26  C   UNL     1      36.943 115.130  87.581  0.00  0.00    +0.041 C 
BRANCH  26  27
ATOM     27  C   UNL     1      36.821 114.221  86.365  0.00  0.00    +0.040 C 
BRANCH  27  28
ATOM     28  C   UNL     1      36.980 114.861  85.008  0.00  0.00    -0.047 A 
ATOM     29  C   UNL     1      36.272 116.103  84.702  0.00  0.00    +0.003 A 
ATOM     30  C   UNL     1      36.421 116.724  83.421  0.00  0.00    +0.000 A 
ATOM     31  C   UNL     1      37.271 116.137  82.400  0.00  0.00    +0.000 A 
ATOM     32  C   UNL     1      37.975 114.915  82.688  0.00  0.00    +0.000 A 
ATOM     33  C   UNL     1      37.823 114.280  83.999  0.00  0.00    +0.003 A 
=======
ATOM     20  C   UNL     1      40.412 114.050  87.438  0.00  0.00    +0.055 A 
ATOM     21  C   UNL     1      41.486 114.968  87.607  0.00  0.00    +0.123 A 
ATOM     22  N   UNL     1      41.822 115.532  88.782  0.00  0.00    -0.262 NA
ATOM     23  C   UNL     1      41.116 115.215  89.882  0.00  0.00    +0.114 A 
ATOM     24  C   UNL     1      40.011 114.314  89.875  0.00  0.00    -0.028 A 
ATOM     25  C   UNL     1      39.646 113.709  88.605  0.00  0.00    +0.019 A 
BRANCH  24  26
ATOM     26  C   UNL     1      39.281 113.991  91.138  0.00  0.00    +0.041 C 
BRANCH  26  27
ATOM     27  C   UNL     1      39.127 112.493  91.372  0.00  0.00    +0.040 C 
BRANCH  27  28
ATOM     28  C   UNL     1      40.164 111.821  92.237  0.00  0.00    -0.047 A 
ATOM     29  C   UNL     1      39.840 110.575  92.928  0.00  0.00    +0.003 A 
ATOM     30  C   UNL     1      40.819 109.924  93.746  0.00  0.00    +0.000 A 
ATOM     31  C   UNL     1      42.148 110.486  93.909  0.00  0.00    +0.000 A 
ATOM     32  C   UNL     1      42.482 111.713  93.234  0.00  0.00    +0.000 A 
ATOM     33  C   UNL     1      41.480 112.377  92.396  0.00  0.00    +0.003 A 
>>>>>>> Stashed changes
ENDBRANCH  27  28
ENDBRANCH  26  27
ENDBRANCH  24  26
ENDBRANCH   5  20
TORSDOF 7
ENDMDL
MODEL 6
<<<<<<< Updated upstream
REMARK VINA RESULT:      -8.0      2.213      5.161
=======
REMARK VINA RESULT:      -7.8      3.302      4.398
>>>>>>> Stashed changes
REMARK  Name = LIGAND
REMARK  7 active torsions:
REMARK  status: ('A' for Active; 'I' for Inactive)
REMARK    1  A    between atoms: C_1  and  C_26
REMARK    2  A    between atoms: C_6  and  C_11
REMARK    3  A    between atoms: C_11  and  N_14
REMARK    4  A    between atoms: C_24  and  C_35
REMARK    5  A    between atoms: C_40  and  C_42
REMARK    6  A    between atoms: C_42  and  C_47
REMARK    7  A    between atoms: C_47  and  C_50
REMARK                            x       y       z     vdW  Elec       q    Type
REMARK                         _______ _______ _______ _____ _____    ______ ____
ROOT
<<<<<<< Updated upstream
ATOM      1  C   UNL     1      42.283 110.530  82.781  0.00  0.00    +0.022 C 
ATOM      2  C   UNL     1      41.204 110.446  81.631  0.00  0.00    +0.027 C 
ATOM      3  C   UNL     1      39.798 110.194  82.209  0.00  0.00    +0.108 C 
ATOM      4  N   UNL     1      39.403 111.214  83.233  0.00  0.00    -0.297 N 
ATOM      5  C   UNL     1      38.335 112.098  83.008  0.00  0.00    +0.248 C 
ATOM      6  O   UNL     1      37.689 112.102  81.968  0.00  0.00    -0.270 OA
ATOM      7  C   UNL     1      40.348 111.175  84.379  0.00  0.00    +0.108 C 
ATOM      8  C   UNL     1      41.789 111.569  83.872  0.00  0.00    +0.027 C 
ENDROOT
BRANCH   1   9
ATOM      9  C   UNL     1      43.697 110.807  82.226  0.00  0.00    -0.044 A 
ATOM     10  C   UNL     1      44.845 110.522  83.077  0.00  0.00    +0.004 A 
ATOM     11  C   UNL     1      46.183 110.764  82.619  0.00  0.00    +0.000 A 
ATOM     12  C   UNL     1      46.424 111.292  81.317  0.00  0.00    +0.002 A 
ATOM     13  C   UNL     1      45.310 111.588  80.442  0.00  0.00    -0.065 A 
ATOM     14  C   UNL     1      43.949 111.345  80.904  0.00  0.00    +0.005 A 
BRANCH  13  15
ATOM     15  C   UNL     1      45.564 112.153  79.068  0.00  0.00    -0.051 C 
BRANCH  15  16
ATOM     16  N   UNL     1      44.883 111.410  77.964  0.00  0.00    +0.381 N 
ATOM     17  H   UNL     1      44.986 110.412  78.071  0.00  0.00    -0.090 HD
ATOM     18  H   UNL     1      45.285 111.644  77.066  0.00  0.00    -0.090 HD
ATOM     19  H   UNL     1      43.895 111.612  77.919  0.00  0.00    -0.090 HD
=======
ATOM      1  C   UNL     1      43.819 111.566  85.427  0.00  0.00    +0.022 C 
ATOM      2  C   UNL     1      43.203 110.374  86.260  0.00  0.00    +0.027 C 
ATOM      3  C   UNL     1      43.012 110.771  87.736  0.00  0.00    +0.108 C 
ATOM      4  N   UNL     1      42.189 112.012  87.900  0.00  0.00    -0.297 N 
ATOM      5  C   UNL     1      40.931 111.977  88.524  0.00  0.00    +0.248 C 
ATOM      6  O   UNL     1      40.432 110.941  88.945  0.00  0.00    -0.270 OA
ATOM      7  C   UNL     1      42.860 113.158  87.233  0.00  0.00    +0.108 C 
ATOM      8  C   UNL     1      42.956 112.870  85.685  0.00  0.00    +0.027 C 
ENDROOT
BRANCH   1   9
ATOM      9  C   UNL     1      43.997 111.198  83.939  0.00  0.00    -0.044 A 
ATOM     10  C   UNL     1      43.059 110.256  83.340  0.00  0.00    +0.004 A 
ATOM     11  C   UNL     1      43.178 109.871  81.963  0.00  0.00    +0.000 A 
ATOM     12  C   UNL     1      44.217 110.399  81.143  0.00  0.00    +0.002 A 
ATOM     13  C   UNL     1      45.168 111.337  81.702  0.00  0.00    -0.065 A 
ATOM     14  C   UNL     1      45.052 111.730  83.100  0.00  0.00    +0.005 A 
BRANCH  13  15
ATOM     15  C   UNL     1      46.272 111.891  80.838  0.00  0.00    -0.051 C 
BRANCH  15  16
ATOM     16  N   UNL     1      46.038 111.736  79.370  0.00  0.00    +0.381 N 
ATOM     17  H   UNL     1      45.295 112.337  79.047  0.00  0.00    -0.090 HD
ATOM     18  H   UNL     1      45.760 110.791  79.143  0.00  0.00    -0.090 HD
ATOM     19  H   UNL     1      46.862 111.951  78.826  0.00  0.00    -0.090 HD
>>>>>>> Stashed changes
ENDBRANCH  15  16
ENDBRANCH  13  15
ENDBRANCH   1   9
BRANCH   5  20
<<<<<<< Updated upstream
ATOM     20  C   UNL     1      37.845 113.099  84.017  0.00  0.00    +0.055 A 
ATOM     21  C   UNL     1      36.932 114.127  83.645  0.00  0.00    +0.123 A 
ATOM     22  N   UNL     1      36.472 115.071  84.486  0.00  0.00    -0.262 NA
ATOM     23  C   UNL     1      36.896 115.068  85.763  0.00  0.00    +0.114 A 
ATOM     24  C   UNL     1      37.807 114.105  86.287  0.00  0.00    -0.028 A 
ATOM     25  C   UNL     1      38.299 113.082  85.380  0.00  0.00    +0.019 A 
BRANCH  24  26
ATOM     26  C   UNL     1      38.251 114.170  87.712  0.00  0.00    +0.041 C 
BRANCH  26  27
ATOM     27  C   UNL     1      39.649 114.754  87.876  0.00  0.00    +0.040 C 
BRANCH  27  28
ATOM     28  C   UNL     1      40.814 113.817  87.675  0.00  0.00    -0.047 A 
ATOM     29  C   UNL     1      40.700 112.417  88.078  0.00  0.00    +0.003 A 
ATOM     30  C   UNL     1      41.797 111.516  87.885  0.00  0.00    +0.000 A 
ATOM     31  C   UNL     1      43.041 111.971  87.291  0.00  0.00    +0.000 A 
ATOM     32  C   UNL     1      43.167 113.348  86.889  0.00  0.00    +0.000 A 
ATOM     33  C   UNL     1      42.045 114.268  87.085  0.00  0.00    +0.003 A 
ENDBRANCH  27  28
ENDBRANCH  26  27
ENDBRANCH  24  26
ENDBRANCH   5  20
TORSDOF 7
ENDMDL
MODEL 7
REMARK VINA RESULT:      -8.0      4.903      7.519
REMARK  Name = LIGAND
REMARK  7 active torsions:
REMARK  status: ('A' for Active; 'I' for Inactive)
REMARK    1  A    between atoms: C_1  and  C_26
REMARK    2  A    between atoms: C_6  and  C_11
REMARK    3  A    between atoms: C_11  and  N_14
REMARK    4  A    between atoms: C_24  and  C_35
REMARK    5  A    between atoms: C_40  and  C_42
REMARK    6  A    between atoms: C_42  and  C_47
REMARK    7  A    between atoms: C_47  and  C_50
REMARK                            x       y       z     vdW  Elec       q    Type
REMARK                         _______ _______ _______ _____ _____    ______ ____
ROOT
ATOM      1  C   UNL     1      42.895 111.129  83.860  0.00  0.00    +0.022 C 
ATOM      2  C   UNL     1      41.609 111.861  83.308  0.00  0.00    +0.027 C 
ATOM      3  C   UNL     1      40.460 111.809  84.332  0.00  0.00    +0.108 C 
ATOM      4  N   UNL     1      40.851 112.362  85.669  0.00  0.00    -0.297 N 
ATOM      5  C   UNL     1      40.255 113.528  86.179  0.00  0.00    +0.248 C 
ATOM      6  O   UNL     1      39.410 114.162  85.561  0.00  0.00    -0.270 OA
ATOM      7  C   UNL     1      41.967 111.566  86.241  0.00  0.00    +0.108 C 
ATOM      8  C   UNL     1      43.229 111.698  85.301  0.00  0.00    +0.027 C 
ENDROOT
BRANCH   1   9
ATOM      9  C   UNL     1      44.068 111.189  82.859  0.00  0.00    -0.044 A 
ATOM     10  C   UNL     1      45.395 110.804  83.321  0.00  0.00    +0.004 A 
ATOM     11  C   UNL     1      46.526 110.846  82.438  0.00  0.00    +0.000 A 
ATOM     12  C   UNL     1      46.379 111.267  81.084  0.00  0.00    +0.002 A 
ATOM     13  C   UNL     1      45.077 111.657  80.588  0.00  0.00    -0.065 A 
ATOM     14  C   UNL     1      43.927 111.617  81.482  0.00  0.00    +0.005 A 
BRANCH  13  15
ATOM     15  C   UNL     1      44.923 112.108  79.159  0.00  0.00    -0.051 C 
BRANCH  15  16
ATOM     16  N   UNL     1      44.896 110.994  78.163  0.00  0.00    +0.381 N 
ATOM     17  H   UNL     1      43.957 110.800  77.849  0.00  0.00    -0.090 HD
ATOM     18  H   UNL     1      45.245 110.136  78.568  0.00  0.00    -0.090 HD
ATOM     19  H   UNL     1      45.455 111.196  77.346  0.00  0.00    -0.090 HD
ENDBRANCH  15  16
ENDBRANCH  13  15
ENDBRANCH   1   9
BRANCH   5  20
ATOM     20  C   UNL     1      40.553 114.099  87.538  0.00  0.00    +0.055 A 
ATOM     21  C   UNL     1      41.651 114.984  87.734  0.00  0.00    +0.123 A 
ATOM     22  N   UNL     1      41.993 115.512  88.924  0.00  0.00    -0.262 NA
ATOM     23  C   UNL     1      41.271 115.188  90.011  0.00  0.00    +0.114 A 
ATOM     24  C   UNL     1      40.144 114.317  89.977  0.00  0.00    -0.028 A 
ATOM     25  C   UNL     1      39.771 113.752  88.691  0.00  0.00    +0.019 A 
BRANCH  24  26
ATOM     26  C   UNL     1      39.396 113.985  91.227  0.00  0.00    +0.041 C 
BRANCH  26  27
ATOM     27  C   UNL     1      39.337 112.488  91.508  0.00  0.00    +0.040 C 
BRANCH  27  28
ATOM     28  C   UNL     1      40.650 111.751  91.594  0.00  0.00    -0.047 A 
ATOM     29  C   UNL     1      41.556 112.007  92.712  0.00  0.00    +0.003 A 
ATOM     30  C   UNL     1      42.802 111.308  92.808  0.00  0.00    +0.000 A 
ATOM     31  C   UNL     1      43.193 110.337  91.802  0.00  0.00    +0.000 A 
ATOM     32  C   UNL     1      42.310 110.074  90.696  0.00  0.00    +0.000 A 
ATOM     33  C   UNL     1      41.035 110.788  90.599  0.00  0.00    +0.003 A 
ENDBRANCH  27  28
ENDBRANCH  26  27
ENDBRANCH  24  26
ENDBRANCH   5  20
TORSDOF 7
ENDMDL
MODEL 8
REMARK VINA RESULT:      -8.0      4.406      7.071
REMARK  Name = LIGAND
REMARK  7 active torsions:
REMARK  status: ('A' for Active; 'I' for Inactive)
REMARK    1  A    between atoms: C_1  and  C_26
REMARK    2  A    between atoms: C_6  and  C_11
REMARK    3  A    between atoms: C_11  and  N_14
REMARK    4  A    between atoms: C_24  and  C_35
REMARK    5  A    between atoms: C_40  and  C_42
REMARK    6  A    between atoms: C_42  and  C_47
REMARK    7  A    between atoms: C_47  and  C_50
REMARK                            x       y       z     vdW  Elec       q    Type
REMARK                         _______ _______ _______ _____ _____    ______ ____
ROOT
ATOM      1  C   UNL     1      42.177 112.701  87.968  0.00  0.00    +0.022 C 
ATOM      2  C   UNL     1      43.019 113.327  86.788  0.00  0.00    +0.027 C 
ATOM      3  C   UNL     1      43.299 112.281  85.692  0.00  0.00    +0.108 C 
ATOM      4  N   UNL     1      42.050 111.642  85.170  0.00  0.00    -0.297 N 
ATOM      5  C   UNL     1      41.636 111.827  83.839  0.00  0.00    +0.248 C 
ATOM      6  O   UNL     1      42.253 112.528  83.049  0.00  0.00    -0.270 OA
ATOM      7  C   UNL     1      41.345 110.930  86.268  0.00  0.00    +0.108 C 
ATOM      8  C   UNL     1      40.903 111.979  87.361  0.00  0.00    +0.027 C 
ENDROOT
BRANCH   1   9
ATOM      9  C   UNL     1      41.863 113.738  89.067  0.00  0.00    -0.044 A 
ATOM     10  C   UNL     1      41.115 114.934  88.699  0.00  0.00    +0.004 A 
ATOM     11  C   UNL     1      40.799 115.937  89.675  0.00  0.00    +0.000 A 
ATOM     12  C   UNL     1      41.211 115.791  91.032  0.00  0.00    +0.002 A 
ATOM     13  C   UNL     1      41.956 114.618  91.436  0.00  0.00    -0.065 A 
ATOM     14  C   UNL     1      42.280 113.597  90.448  0.00  0.00    +0.005 A 
BRANCH  13  15
ATOM     15  C   UNL     1      42.397 114.465  92.869  0.00  0.00    -0.051 C 
BRANCH  15  16
ATOM     16  N   UNL     1      43.148 113.203  93.149  0.00  0.00    +0.381 N 
ATOM     17  H   UNL     1      42.577 112.534  93.643  0.00  0.00    -0.090 HD
ATOM     18  H   UNL     1      43.953 113.381  93.734  0.00  0.00    -0.090 HD
ATOM     19  H   UNL     1      43.477 112.758  92.304  0.00  0.00    -0.090 HD
ENDBRANCH  15  16
ENDBRANCH  13  15
ENDBRANCH   1   9
BRANCH   5  20
ATOM     20  C   UNL     1      40.431 111.163  83.234  0.00  0.00    +0.055 A 
ATOM     21  C   UNL     1      40.500 109.829  82.741  0.00  0.00    +0.123 A 
ATOM     22  N   UNL     1      39.472 109.181  82.163  0.00  0.00    -0.262 NA
ATOM     23  C   UNL     1      38.296 109.820  82.024  0.00  0.00    +0.114 A 
ATOM     24  C   UNL     1      38.068 111.155  82.468  0.00  0.00    -0.028 A 
ATOM     25  C   UNL     1      39.178 111.852  83.097  0.00  0.00    +0.019 A 
BRANCH  24  26
ATOM     26  C   UNL     1      36.742 111.812  82.266  0.00  0.00    +0.041 C 
BRANCH  26  27
ATOM     27  C   UNL     1      36.794 112.973  81.280  0.00  0.00    +0.040 C 
BRANCH  27  28
ATOM     28  C   UNL     1      36.371 114.328  81.790  0.00  0.00    -0.047 A 
ATOM     29  C   UNL     1      37.358 115.218  82.399  0.00  0.00    +0.003 A 
ATOM     30  C   UNL     1      36.971 116.509  82.880  0.00  0.00    +0.000 A 
ATOM     31  C   UNL     1      35.594 116.962  82.777  0.00  0.00    +0.000 A 
ATOM     32  C   UNL     1      34.612 116.097  82.179  0.00  0.00    +0.000 A 
ATOM     33  C   UNL     1      35.009 114.776  81.686  0.00  0.00    +0.003 A 
ENDBRANCH  27  28
ENDBRANCH  26  27
ENDBRANCH  24  26
ENDBRANCH   5  20
TORSDOF 7
ENDMDL
MODEL 9
REMARK VINA RESULT:      -7.7      3.728      4.719
REMARK  Name = LIGAND
REMARK  7 active torsions:
REMARK  status: ('A' for Active; 'I' for Inactive)
REMARK    1  A    between atoms: C_1  and  C_26
REMARK    2  A    between atoms: C_6  and  C_11
REMARK    3  A    between atoms: C_11  and  N_14
REMARK    4  A    between atoms: C_24  and  C_35
REMARK    5  A    between atoms: C_40  and  C_42
REMARK    6  A    between atoms: C_42  and  C_47
REMARK    7  A    between atoms: C_47  and  C_50
REMARK                            x       y       z     vdW  Elec       q    Type
REMARK                         _______ _______ _______ _____ _____    ______ ____
ROOT
ATOM      1  C   UNL     1      43.348 112.088  85.718  0.00  0.00    +0.022 C 
ATOM      2  C   UNL     1      42.940 111.008  86.796  0.00  0.00    +0.027 C 
ATOM      3  C   UNL     1      42.691 111.663  88.168  0.00  0.00    +0.108 C 
ATOM      4  N   UNL     1      41.674 112.762  88.108  0.00  0.00    -0.297 N 
ATOM      5  C   UNL     1      40.441 112.653  88.773  0.00  0.00    +0.248 C 
ATOM      6  O   UNL     1      40.122 111.659  89.411  0.00  0.00    -0.270 OA
ATOM      7  C   UNL     1      42.145 113.841  87.201  0.00  0.00    +0.108 C 
ATOM      8  C   UNL     1      42.282 113.262  85.739  0.00  0.00    +0.027 C 
ENDROOT
BRANCH   1   9
ATOM      9  C   UNL     1      43.580 111.457  84.328  0.00  0.00    -0.044 A 
ATOM     10  C   UNL     1      42.516 110.647  83.748  0.00  0.00    +0.004 A 
ATOM     11  C   UNL     1      42.675 110.030  82.463  0.00  0.00    +0.000 A 
ATOM     12  C   UNL     1      43.880 110.192  81.719  0.00  0.00    +0.002 A 
ATOM     13  C   UNL     1      44.960 110.988  82.262  0.00  0.00    -0.065 A 
ATOM     14  C   UNL     1      44.803 111.616  83.568  0.00  0.00    +0.005 A 
BRANCH  13  15
ATOM     15  C   UNL     1      46.237 111.154  81.480  0.00  0.00    -0.051 C 
BRANCH  15  16
ATOM     16  N   UNL     1      46.039 111.308  80.006  0.00  0.00    +0.381 N 
ATOM     17  H   UNL     1      46.815 110.929  79.486  0.00  0.00    -0.090 HD
ATOM     18  H   UNL     1      45.971 112.284  79.749  0.00  0.00    -0.090 HD
ATOM     19  H   UNL     1      45.200 110.848  79.683  0.00  0.00    -0.090 HD
ENDBRANCH  15  16
ENDBRANCH  13  15
ENDBRANCH   1   9
BRANCH   5  20
ATOM     20  C   UNL     1      39.406 113.743  88.808  0.00  0.00    +0.055 A 
ATOM     21  C   UNL     1      39.526 114.837  89.711  0.00  0.00    +0.123 A 
ATOM     22  N   UNL     1      38.627 115.833  89.817  0.00  0.00    -0.262 NA
ATOM     23  C   UNL     1      37.533 115.807  89.035  0.00  0.00    +0.114 A 
ATOM     24  C   UNL     1      37.271 114.781  88.081  0.00  0.00    -0.028 A 
ATOM     25  C   UNL     1      38.245 113.709  87.963  0.00  0.00    +0.019 A 
BRANCH  24  26
ATOM     26  C   UNL     1      36.025 114.804  87.256  0.00  0.00    +0.041 C 
BRANCH  26  27
ATOM     27  C   UNL     1      34.950 115.723  87.823  0.00  0.00    +0.040 C 
BRANCH  27  28
ATOM     28  C   UNL     1      33.820 116.112  86.902  0.00  0.00    -0.047 A 
ATOM     29  C   UNL     1      32.561 116.602  87.460  0.00  0.00    +0.003 A 
ATOM     30  C   UNL     1      31.485 116.981  86.595  0.00  0.00    +0.000 A 
ATOM     31  C   UNL     1      31.616 116.884  85.152  0.00  0.00    +0.000 A 
ATOM     32  C   UNL     1      32.850 116.403  84.589  0.00  0.00    +0.000 A 
ATOM     33  C   UNL     1      33.952 116.017  85.474  0.00  0.00    +0.003 A 
=======
ATOM     20  C   UNL     1      40.084 113.193  88.778  0.00  0.00    +0.055 A 
ATOM     21  C   UNL     1      40.310 114.016  89.917  0.00  0.00    +0.123 A 
ATOM     22  N   UNL     1      39.577 115.103  90.223  0.00  0.00    -0.262 NA
ATOM     23  C   UNL     1      38.554 115.445  89.419  0.00  0.00    +0.114 A 
ATOM     24  C   UNL     1      38.203 114.723  88.241  0.00  0.00    -0.028 A 
ATOM     25  C   UNL     1      38.999 113.553  87.908  0.00  0.00    +0.019 A 
BRANCH  24  26
ATOM     26  C   UNL     1      37.043 115.148  87.401  0.00  0.00    +0.041 C 
BRANCH  26  27
ATOM     27  C   UNL     1      36.929 114.364  86.099  0.00  0.00    +0.040 C 
BRANCH  27  28
ATOM     28  C   UNL     1      36.483 115.125  84.875  0.00  0.00    -0.047 A 
ATOM     29  C   UNL     1      35.080 115.508  84.726  0.00  0.00    +0.003 A 
ATOM     30  C   UNL     1      34.647 116.237  83.573  0.00  0.00    +0.000 A 
ATOM     31  C   UNL     1      35.585 116.607  82.528  0.00  0.00    +0.000 A 
ATOM     32  C   UNL     1      36.969 116.236  82.660  0.00  0.00    +0.000 A 
ATOM     33  C   UNL     1      37.412 115.492  83.842  0.00  0.00    +0.003 A 
>>>>>>> Stashed changes
ENDBRANCH  27  28
ENDBRANCH  26  27
ENDBRANCH  24  26
ENDBRANCH   5  20
TORSDOF 7
ENDMDL
